CC=C=CC1C2C13[C]2(=[C]345)C5=C4C=C=C6[C]([C]6=78)(=C)C8C7
                    3D
 Schrodinger Suite 2021-1.
 19 26  0  0  1  0            999 V2000
   43.9907  116.4108   16.8919 C   0  0  0  0  0  0
   44.3350  115.2497   17.8391 C   0  0  0  0  0  0
   45.2724  116.4213   17.6140 C   0  0  0  0  0  0
   44.2869  117.6625   17.6753 C   0  0  0  0  0  0
   46.6408  118.4853   17.9899 C   0  0  0  0  0  0
   45.4837  117.6388   18.4994 C   0  0  0  0  0  0
   45.2628  118.7772   17.4412 C   0  0  0  0  0  0
   44.8842  114.8505   12.6991 C   0  0  0  0  0  0
   45.0353  113.2314   13.2280 C   0  0  0  0  0  0
   45.1960  113.7729   14.6086 C   0  0  0  0  0  0
   45.6130  111.8073   13.2833 C   0  0  0  0  0  0
   44.9479  113.8395   15.8904 C   0  0  0  0  0  0
   44.7450  113.9537   17.1809 C   0  0  0  0  0  0
   45.9043  114.2668   13.3887 C   0  0  0  0  0  0
   45.8190  113.9184   12.0245 C   0  0  0  0  0  0
   48.2359  121.7131   18.3417 C   0  0  0  0  0  0
   48.6466  122.7072   19.3766 C   0  0  0  0  0  0
   47.7033  120.5735   18.6873 C   0  0  0  0  0  0
   47.1576  119.4358   19.0260 C   0  0  0  0  0  0
  1  2  2  0  0  0
  1  3  1  0  0  0
  1  4  1  0  0  0
  2  3  1  0  0  0
  2 13  1  0  0  0
  3  4  2  0  0  0
  3  6  1  0  0  0
  4  6  1  0  0  0
  4  7  1  0  0  0
  5  6  1  0  0  0
  5  7  1  0  0  0
  5 19  1  0  0  0
  6  7  1  0  0  0
  8 14  2  0  0  0
  8 15  1  0  0  0
  9 10  1  0  0  0
  9 11  2  0  0  0
  9 14  1  0  0  0
  9 15  1  0  0  0
 10 12  2  0  0  0
 10 14  1  0  0  0
 12 13  2  0  0  0
 14 15  1  0  0  0
 16 17  1  0  0  0
 16 18  2  0  0  0
 18 19  2  0  0  0
M  END
> <s_m_entry_id>
1

> <s_m_entry_name>
NEW-hitrmd-var1_1_lig_gen_fit_add_gna.sdf.2

> <minimizedAffinity>
-9.58223

> <minimizedRMSD>
0.82716

> <CNNscore>
0.5779972672

> <CNNaffinity>
5.5413236618

> <CNN_VS>
3.2028698921

> <CNNaffinity_variance>
0.4008463323

> <s_m_Source_Path>
C:\Users\maila\Downloads\mgr\NEW_model_var1_hitrmd

> <s_m_Source_File>
wzakresie-VAR1-NEW-hitrmd.maegz

> <i_m_Source_File_Index>
1

> <s_user_SMILES>
CC=C=CC1C2C13[C]2(=[C]345)C5=C4C=C=C6[C]([C]6=78)(=C)C8C7

> <s_m_subgroup_title>
wzakresie-VAR1-NEW-hitrmd->NEW-hitrmd-var1_1_lig_gen_fit_add_gna

> <s_m_subgroupid>
wzakresie-VAR1-NEW-hitrmd->NEW-hitrmd-var1_1_lig_gen_fit_add_gna

> <b_m_subgroup_collapsed>
0

$$$$
CC#CC=C=C1C=2[C]3([C]124)C4C=3CCCC=5C6=C(C7)[C]=7([C]568)C8
                    3D
 Schrodinger Suite 2021-1.
 21 28  0  0  1  0            999 V2000
   47.1026  118.8301   17.5133 C   0  0  0  0  0  0
   45.8218  118.4053   16.9446 C   0  0  0  0  0  0
   44.6950  118.1680   17.9252 C   0  0  0  0  0  0
   46.1080  118.1707   18.4641 C   0  0  0  0  0  0
   46.3503  119.8010   16.7032 C   0  0  0  0  0  0
   49.0378  122.1782   18.4503 C   0  0  0  0  0  0
   48.1728  121.2594   18.1232 C   0  0  0  0  0  0
   47.3498  120.3208   17.7484 C   0  0  0  0  0  0
   48.6156  123.8284   20.4673 C   0  0  0  0  0  0
   48.3997  124.7640   21.5710 C   0  0  0  0  0  0
   48.7973  123.0661   19.5513 C   0  0  0  0  0  0
   44.0104  116.7863   17.7602 C   0  0  0  0  0  0
   44.9776  115.5885   17.7508 C   0  0  0  0  0  0
   44.6119  114.4722   16.7638 C   0  0  0  0  0  0
   45.0183  114.1562   12.8266 C   0  0  0  0  0  0
   43.9710  114.5209   13.9877 C   0  0  0  0  0  0
   44.9110  115.5206   13.1443 C   0  0  0  0  0  0
   45.5848  114.6991   14.0350 C   0  0  0  0  0  0
   44.3734  115.8514   14.3070 C   0  0  0  0  0  0
   44.6102  114.8459   15.2932 C   0  0  0  0  0  0
   45.5830  116.6884   13.6916 C   0  0  0  0  0  0
  1  2  1  0  0  0
  1  4  1  0  0  0
  1  5  2  0  0  0
  1  8  1  0  0  0
  2  3  2  0  0  0
  2  4  1  0  0  0
  2  5  1  0  0  0
  3  4  1  0  0  0
  3 12  1  0  0  0
  5  8  1  0  0  0
  6 11  1  0  0  0
  6  7  2  0  0  0
  7  8  2  0  0  0
  9 10  1  0  0  0
  9 11  3  0  0  0
 12 13  1  0  0  0
 13 14  1  0  0  0
 14 20  1  0  0  0
 15 17  2  0  0  0
 15 18  1  0  0  0
 16 18  2  0  0  0
 16 19  1  0  0  0
 16 20  1  0  0  0
 17 18  1  0  0  0
 17 19  1  0  0  0
 17 21  1  0  0  0
 19 20  2  0  0  0
 19 21  1  0  0  0
M  END
> <s_m_entry_id>
2

> <s_m_entry_name>
NEW-hitrmd-var1_1_lig_gen_fit_add_gna.sdf.4

> <minimizedAffinity>
-8.06124

> <minimizedRMSD>
1.13775

> <CNNscore>
0.2199379206

> <CNNaffinity>
5.5541038513

> <CNN_VS>
1.221558094

> <CNNaffinity_variance>
0.1920681894

> <s_m_Source_Path>
C:\Users\maila\Downloads\mgr\NEW_model_var1_hitrmd

> <s_m_Source_File>
wzakresie-VAR1-NEW-hitrmd.maegz

> <i_m_Source_File_Index>
2

> <s_user_SMILES>
CC#CC=C=C1C=2[C]3([C]124)C4C=3CCCC=5C6=C(C7)[C]=7([C]568)C8

> <s_m_subgroup_title>
wzakresie-VAR1-NEW-hitrmd->NEW-hitrmd-var1_1_lig_gen_fit_add_gna

> <s_m_subgroupid>
wzakresie-VAR1-NEW-hitrmd->NEW-hitrmd-var1_1_lig_gen_fit_add_gna

> <b_m_subgroup_collapsed>
0

$$$$
C1C=C2[C]=13[C]24=[C]35C6(C457)C78C69C18C9C1C1C2C13[C]12=[C]3([C]1=23)[C]=13C2C1
                    3D
 Schrodinger Suite 2021-1.
 22 38  0  0  1  0            999 V2000
   33.7174  -24.5992  -13.3737 C   0  0  0  0  0  0
   34.8299  -24.6392  -12.3914 C   0  0  0  0  0  0
   33.1910  -23.4640  -12.7517 C   0  0  0  0  0  0
   35.8084  -24.7796   -6.0479 C   0  0  0  0  0  0
   35.7522  -23.3198   -6.5333 C   0  0  0  0  0  0
   36.0092  -24.3992   -7.4895 C   0  0  0  0  0  0
   34.3835  -23.4001  -11.8624 C   0  0  0  0  0  0
   34.2874  -24.6778  -10.9973 C   0  0  0  0  0  0
   34.1601  -23.3868  -10.3581 C   0  0  0  0  0  0
   34.9456  -24.5634   -8.5105 C   0  0  0  0  0  0
   35.3162  -24.4080   -9.9476 C   0  0  0  0  0  0
   35.1861  -23.1660   -9.2593 C   0  0  0  0  0  0
   34.8680  -23.3308   -7.7818 C   0  0  0  0  0  0
   40.2384  -27.4627   -6.5499 C   0  0  0  0  0  0
   38.0424  -27.5682   -5.7416 C   0  0  0  0  0  0
   41.1061  -28.1966   -5.7724 C   0  0  0  0  0  0
   40.0327  -28.8644   -6.5721 C   0  0  0  0  0  0
   39.4957  -27.8966   -5.4304 C   0  0  0  0  0  0
   39.2551  -26.5613   -5.8501 C   0  0  0  0  0  0
   37.1177  -25.2569   -5.4265 C   0  0  0  0  0  0
   37.8431  -26.2567   -6.3036 C   0  0  0  0  0  0
   37.0603  -26.6970   -5.0061 C   0  0  0  0  0  0
  1  2  2  0  0  0
  1  3  1  0  0  0
  2  7  1  0  0  0
  2  8  1  0  0  0
  3  7  2  0  0  0
  4  5  1  0  0  0
  4  6  1  0  0  0
  4 20  1  0  0  0
  5  6  1  0  0  0
  5 13  1  0  0  0
  6 10  1  0  0  0
  6 13  1  0  0  0
  7  8  1  0  0  0
  7  9  1  0  0  0
  8  9  2  0  0  0
  8 11  1  0  0  0
  9 11  1  0  0  0
  9 12  1  0  0  0
 10 11  1  0  0  0
 10 12  1  0  0  0
 10 13  1  0  0  0
 11 12  1  0  0  0
 12 13  1  0  0  0
 14 16  2  0  0  0
 14 17  1  0  0  0
 14 18  1  0  0  0
 14 19  1  0  0  0
 15 18  1  0  0  0
 15 19  2  0  0  0
 15 21  1  0  0  0
 15 22  1  0  0  0
 16 17  1  0  0  0
 17 18  2  0  0  0
 18 19  1  0  0  0
 19 21  1  0  0  0
 20 21  1  0  0  0
 20 22  1  0  0  0
 21 22  1  0  0  0
M  END
> <s_m_entry_id>
3

> <s_m_entry_name>
NEW-hitrmd-var1_2_lig_gen_fit_add_gna.sdf.2

> <minimizedAffinity>
-8.65995

> <minimizedRMSD>
1.7099

> <CNNscore>
0.4446212649

> <CNNaffinity>
5.7452383041

> <CNN_VS>
2.5544550419

> <CNNaffinity_variance>
0.2050999105

> <s_m_Source_Path>
C:\Users\maila\Downloads\mgr\NEW_model_var1_hitrmd

> <s_m_Source_File>
wzakresie-VAR1-NEW-hitrmd.maegz

> <i_m_Source_File_Index>
3

> <s_user_SMILES>
C1C=C2[C]=13[C]24=[C]35C6(C457)C78C69C18C9C1C1C2C13[C]12=[C]3([C]1=23)[C]=13C2C1

> <s_m_subgroup_title>
wzakresie-VAR1-NEW-hitrmd->NEW-hitrmd-var1_2_lig_gen_fit_add_gna

> <s_m_subgroupid>
wzakresie-VAR1-NEW-hitrmd->NEW-hitrmd-var1_2_lig_gen_fit_add_gna

> <b_m_subgroup_collapsed>
0

$$$$
C12=C3[C@@H](C1=C2)[C@@H]3C[C@]45[C@@]6([C@H]4[C@H]56)C7=C8[C@H]9C(C=1C9=C78)=CC1
                    3D
 Schrodinger Suite 2021-1.
 20 29  0  0  1  0            999 V2000
   37.8584  -24.3523   -5.8828 C   0  0  1  0  0  0
   36.4421  -24.8363   -5.3185 C   0  0  2  0  0  0
   37.6073  -25.7320   -5.5857 C   0  0  1  0  0  0
   36.7770  -24.9420   -6.7267 C   0  0  2  0  0  0
   34.0988  -23.0085   -9.8395 C   0  0  0  0  0  0
   35.3336  -23.3863  -10.6503 C   0  0  0  0  0  0
   35.8008  -24.5885   -9.8479 C   0  0  0  0  0  0
   33.2871  -23.6189  -10.7999 C   0  0  0  0  0  0
   36.2836  -23.9483   -8.8003 C   0  0  0  0  0  0
   34.2783  -24.2909   -8.9947 C   0  0  1  0  0  0
   36.3069  -23.6742   -7.4465 C   0  0  0  0  0  0
   34.4570  -23.7564  -11.7379 C   0  0  0  0  0  0
   35.0961  -23.7378   -8.1153 C   0  0  0  0  0  0
   37.9341  -26.9460   -6.4910 C   0  0  0  0  0  0
   40.2253  -27.3609   -6.1860 C   0  0  0  0  0  0
   41.1697  -27.5319   -4.8854 C   0  0  0  0  0  0
   39.8077  -28.0294   -4.6962 C   0  0  0  0  0  0
   40.5582  -28.5931   -5.4046 C   0  0  0  0  0  0
   39.7610  -28.8246   -6.5645 C   0  0  1  0  0  0
   38.9300  -27.9200   -5.7444 C   0  0  2  0  0  0
  1  2  1  0  0  0
  1  3  1  0  0  0
  1  4  1  0  0  0
  2  3  1  0  0  0
  2  4  1  0  0  0
  3 14  1  0  0  0
  3  4  1  0  0  0
  4 11  1  0  0  0
  5  6  1  0  0  0
  5  8  2  0  0  0
  5 10  1  0  0  0
  6  7  1  0  0  0
  6 12  2  0  0  0
  7  9  2  0  0  0
  7 10  1  0  0  0
  8 12  1  0  0  0
  9 11  1  0  0  0
  9 13  1  0  0  0
 10 13  1  0  0  0
 11 13  2  0  0  0
 14 20  1  0  0  0
 15 17  2  0  0  0
 15 19  1  0  0  0
 15 20  1  0  0  0
 16 17  1  0  0  0
 16 18  2  0  0  0
 17 18  1  0  0  0
 18 19  1  0  0  0
 19 20  1  0  0  0
M  END
> <s_m_entry_id>
4

> <s_m_entry_name>
NEW-hitrmd-var1_2_lig_gen_fit_add_gna.sdf.5

> <minimizedAffinity>
-8.03699

> <minimizedRMSD>
0.66273

> <CNNscore>
0.4376528859

> <CNNaffinity>
5.697622776

> <CNN_VS>
2.4935810566

> <CNNaffinity_variance>
0.1369768232

> <s_m_Source_Path>
C:\Users\maila\Downloads\mgr\NEW_model_var1_hitrmd

> <s_m_Source_File>
wzakresie-VAR1-NEW-hitrmd.maegz

> <i_m_Source_File_Index>
4

> <s_user_SMILES>
C12=C3[C@@H](C1=C2)[C@@H]3C[C@]45[C@@]6([C@H]4[C@H]56)C7=C8[C@H]9C(C=1C9=C78)=CC1

> <s_m_subgroup_title>
wzakresie-VAR1-NEW-hitrmd->NEW-hitrmd-var1_2_lig_gen_fit_add_gna

> <s_m_subgroupid>
wzakresie-VAR1-NEW-hitrmd->NEW-hitrmd-var1_2_lig_gen_fit_add_gna

> <b_m_subgroup_collapsed>
0

$$$$
C1C2[C]=1([C]234)C=4C3=C=CC5C6C5(C78)C68C79C1=[C]2(C139)[C]13=[C]23C1=C3
                    3D
 Schrodinger Suite 2021-1.
 21 34  0  0  1  0            999 V2000
   34.8249  -23.7512  -12.0173 C   0  0  0  0  0  0
   35.2007  -24.8591  -11.0855 C   0  0  0  0  0  0
   35.4245  -26.4437   -6.4755 C   0  0  0  0  0  0
   35.4217  -23.4025  -10.5047 C   0  0  0  0  0  0
   34.1613  -23.9297  -10.8212 C   0  0  0  0  0  0
   36.7131  -24.5357   -7.2963 C   0  0  0  0  0  0
   34.3180  -22.9502   -9.6641 C   0  0  0  0  0  0
   34.3302  -23.6538   -8.3230 C   0  0  0  0  0  0
   36.6697  -25.6070   -6.2258 C   0  0  0  0  0  0
   35.6110  -23.3137   -8.9775 C   0  0  0  0  0  0
   35.4081  -24.9471   -6.7232 C   0  0  0  0  0  0
   35.4919  -24.6697   -8.2374 C   0  0  0  0  0  0
   36.7935  -27.0120   -6.8007 C   0  0  0  0  0  0
   41.0270  -29.0449   -4.8321 C   0  0  0  0  0  0
   42.4413  -29.9051   -4.8872 C   0  0  0  0  0  0
   42.1114  -28.8231   -5.6774 C   0  0  0  0  0  0
   37.2671  -28.0357   -5.8222 C   0  0  0  0  0  0
   41.4466  -30.0332   -5.9944 C   0  0  0  0  0  0
   38.5321  -28.1293   -5.5230 C   0  0  0  0  0  0
   41.2078  -27.7076   -5.2129 C   0  0  0  0  0  0
   39.7938  -28.2274   -5.2191 C   0  0  0  0  0  0
  1  2  2  0  0  0
  1  5  1  0  0  0
  2  4  1  0  0  0
  2  5  1  0  0  0
  3  9  1  0  0  0
  3 11  1  0  0  0
  3 13  1  0  0  0
  4  5  2  0  0  0
  4  7  1  0  0  0
  4 10  1  0  0  0
  5  7  1  0  0  0
  6  9  1  0  0  0
  6 11  1  0  0  0
  6 12  1  0  0  0
  7  8  2  0  0  0
  7 10  1  0  0  0
  8 10  1  0  0  0
  8 12  1  0  0  0
  9 11  1  0  0  0
  9 13  1  0  0  0
 10 12  1  0  0  0
 11 12  1  0  0  0
 13 17  1  0  0  0
 14 16  1  0  0  0
 14 18  1  0  0  0
 14 20  2  0  0  0
 14 21  1  0  0  0
 15 16  2  0  0  0
 15 18  1  0  0  0
 16 18  1  0  0  0
 16 20  1  0  0  0
 17 19  2  0  0  0
 19 21  2  0  0  0
 20 21  1  0  0  0
M  END
> <s_m_entry_id>
5

> <s_m_entry_name>
NEW-hitrmd-var1_2_lig_gen_fit_add_gna.sdf.6

> <minimizedAffinity>
-8.82307

> <minimizedRMSD>
0.28906

> <CNNscore>
0.3759693205

> <CNNaffinity>
5.553399086

> <CNN_VS>
2.0879077911

> <CNNaffinity_variance>
0.2639350891

> <s_m_Source_Path>
C:\Users\maila\Downloads\mgr\NEW_model_var1_hitrmd

> <s_m_Source_File>
wzakresie-VAR1-NEW-hitrmd.maegz

> <i_m_Source_File_Index>
5

> <s_user_SMILES>
C1C2[C]=1([C]234)C=4C3=C=CC5C6C5(C78)C68C79C1=[C]2(C139)[C]13=[C]23C1=C3

> <s_m_subgroup_title>
wzakresie-VAR1-NEW-hitrmd->NEW-hitrmd-var1_2_lig_gen_fit_add_gna

> <s_m_subgroupid>
wzakresie-VAR1-NEW-hitrmd->NEW-hitrmd-var1_2_lig_gen_fit_add_gna

> <b_m_subgroup_collapsed>
0

$$$$
C1C=C2[C]=13[C]4(=[C]235)C56C7(C46)C89C1(C78)C9C1C1CC2[C]13=[C]12[C]2(=[C]134)C4=C2
                    3D
 Schrodinger Suite 2021-1.
 23 38  0  0  1  0            999 V2000
   38.7352  -29.0988   -5.5052 C   0  0  0  0  0  0
   37.4586  -28.3547   -5.3858 C   0  0  0  0  0  0
   39.6568  -29.3741   -4.2625 C   0  0  0  0  0  0
   34.3169  -25.4418   -6.6470 C   0  0  0  0  0  0
   36.3344  -26.8961   -7.0863 C   0  0  0  0  0  0
   34.7336  -24.1689   -7.3473 C   0  0  0  0  0  0
   40.9403  -28.6907   -4.9085 C   0  0  0  0  0  0
   39.9939  -28.4161   -5.7344 C   0  0  0  0  0  0
   35.4859  -26.1849   -6.0326 C   0  0  0  0  0  0
   38.6354  -27.6603   -5.7609 C   0  0  0  0  0  0
   37.5957  -27.7624   -6.8540 C   0  0  0  0  0  0
   36.3379  -28.2965   -6.4108 C   0  0  0  0  0  0
   36.7825  -25.5551   -6.4539 C   0  0  0  0  0  0
   35.5579  -24.6903   -6.1530 C   0  0  0  0  0  0
   32.4747  -23.4085  -11.5666 C   0  0  0  0  0  0
   32.7888  -24.6050  -12.4087 C   0  0  0  0  0  0
   33.5474  -24.3954  -10.9411 C   0  0  0  0  0  0
   33.7531  -23.6621  -12.1241 C   0  0  0  0  0  0
   34.9026  -23.9906  -11.1958 C   0  0  0  0  0  0
   34.2979  -23.6992   -9.8133 C   0  0  0  0  0  0
   35.4274  -22.8688  -10.3125 C   0  0  0  0  0  0
   36.3054  -23.4296   -9.2104 C   0  0  0  0  0  0
   35.1984  -24.3953   -8.8030 C   0  0  0  0  0  0
  1  2  1  0  0  0
  1  3  2  0  0  0
  1  8  1  0  0  0
  1 10  1  0  0  0
  2 10  2  0  0  0
  2 11  1  0  0  0
  2 12  1  0  0  0
  3  7  1  0  0  0
  4  6  1  0  0  0
  4  9  1  0  0  0
  4 14  1  0  0  0
  5  9  1  0  0  0
  5 11  1  0  0  0
  5 12  1  0  0  0
  5 13  1  0  0  0
  6 23  1  0  0  0
  6 14  1  0  0  0
  7  8  2  0  0  0
  8 10  1  0  0  0
  9 13  1  0  0  0
  9 14  1  0  0  0
 10 11  1  0  0  0
 11 12  1  0  0  0
 13 14  1  0  0  0
 15 16  2  0  0  0
 15 17  1  0  0  0
 15 18  1  0  0  0
 16 18  1  0  0  0
 17 18  2  0  0  0
 17 19  1  0  0  0
 17 20  1  0  0  0
 18 19  1  0  0  0
 19 20  2  0  0  0
 19 21  1  0  0  0
 20 21  1  0  0  0
 20 23  1  0  0  0
 21 22  1  0  0  0
 22 23  1  0  0  0
M  END
> <s_m_entry_id>
6

> <s_m_entry_name>
NEW-hitrmd-var1_2_lig_gen_fit_add_gna.sdf.7

> <minimizedAffinity>
-10.35057

> <minimizedRMSD>
0.70349

> <CNNscore>
0.4077872634

> <CNNaffinity>
6.2151875496

> <CNN_VS>
2.5344743729

> <CNNaffinity_variance>
0.0738403276

> <s_m_Source_Path>
C:\Users\maila\Downloads\mgr\NEW_model_var1_hitrmd

> <s_m_Source_File>
wzakresie-VAR1-NEW-hitrmd.maegz

> <i_m_Source_File_Index>
6

> <s_user_SMILES>
C1C=C2[C]=13[C]4(=[C]235)C56C7(C46)C89C1(C78)C9C1C1CC2[C]13=[C]12[C]2(=[C]134)C4=C2

> <s_m_subgroup_title>
wzakresie-VAR1-NEW-hitrmd->NEW-hitrmd-var1_2_lig_gen_fit_add_gna

> <s_m_subgroupid>
wzakresie-VAR1-NEW-hitrmd->NEW-hitrmd-var1_2_lig_gen_fit_add_gna

> <b_m_subgroup_collapsed>
0

$$$$
C1C2[C]=13[C]=2([C]3=45)C56C4C6CC(C7)C7(C89)C18[C]2([C]19=[C]123)=[C]23C1=CC2
                    3D
 Schrodinger Suite 2021-1.
 21 34  0  0  1  0            999 V2000
   34.9142  -24.6444   -9.9895 C   0  0  0  0  0  0
   35.5035  -24.6962   -8.5971 C   0  0  0  0  0  0
   34.2649  -23.6156  -12.1300 C   0  0  0  0  0  0
   36.0243  -24.4615   -5.5166 C   0  0  0  0  0  0
   34.6468  -23.9589   -5.7562 C   0  0  0  0  0  0
   34.1834  -24.0573   -8.8024 C   0  0  0  0  0  0
   33.2024  -23.5701  -11.2187 C   0  0  0  0  0  0
   35.2058  -23.2755   -7.9919 C   0  0  0  0  0  0
   36.5132  -23.8657   -7.8557 C   0  0  0  0  0  0
   35.8076  -23.3167   -6.5667 C   0  0  0  0  0  0
   34.1714  -23.3235  -10.1336 C   0  0  0  0  0  0
   35.2604  -23.5941  -11.0025 C   0  0  0  0  0  0
   36.1840  -25.9657   -5.8382 C   0  0  0  0  0  0
   40.3268  -27.8187   -6.3292 C   0  0  0  0  0  0
   41.2416  -27.9700   -5.3085 C   0  0  0  0  0  0
   37.8942  -27.5686   -6.8962 C   0  0  0  0  0  0
   39.5958  -27.8380   -5.1327 C   0  0  0  0  0  0
   38.9537  -28.4751   -6.2855 C   0  0  0  0  0  0
   40.5670  -26.6571   -5.5529 C   0  0  0  0  0  0
   38.0903  -27.6299   -5.3871 C   0  0  0  0  0  0
   37.6632  -26.3224   -6.0548 C   0  0  0  0  0  0
  1  2  2  0  0  0
  1  6  1  0  0  0
  1 11  1  0  0  0
  1 12  1  0  0  0
  2  6  1  0  0  0
  2  8  1  0  0  0
  2  9  1  0  0  0
  3  7  1  0  0  0
  3 12  2  0  0  0
  4 13  1  0  0  0
  4  5  1  0  0  0
  4 10  1  0  0  0
  5 10  1  0  0  0
  6  8  1  0  0  0
  6 11  2  0  0  0
  7 11  1  0  0  0
  8  9  1  0  0  0
  8 10  1  0  0  0
  9 10  1  0  0  0
 11 12  1  0  0  0
 13 21  1  0  0  0
 14 15  2  0  0  0
 14 17  1  0  0  0
 14 18  1  0  0  0
 14 19  1  0  0  0
 15 19  1  0  0  0
 16 18  2  0  0  0
 16 20  1  0  0  0
 16 21  1  0  0  0
 17 18  1  0  0  0
 17 19  2  0  0  0
 17 20  1  0  0  0
 18 20  1  0  0  0
 20 21  1  0  0  0
M  END
> <s_m_entry_id>
7

> <s_m_entry_name>
NEW-hitrmd-var1_2_lig_gen_fit_add_gna.sdf.10

> <minimizedAffinity>
-8.47828

> <minimizedRMSD>
0.45063

> <CNNscore>
0.4098232388

> <CNNaffinity>
6.0065717697

> <CNN_VS>
2.4616327286

> <CNNaffinity_variance>
0.0275242981

> <s_m_Source_Path>
C:\Users\maila\Downloads\mgr\NEW_model_var1_hitrmd

> <s_m_Source_File>
wzakresie-VAR1-NEW-hitrmd.maegz

> <i_m_Source_File_Index>
7

> <s_user_SMILES>
C1C2[C]=13[C]=2([C]3=45)C56C4C6CC(C7)C7(C89)C18[C]2([C]19=[C]123)=[C]23C1=CC2

> <s_m_subgroup_title>
wzakresie-VAR1-NEW-hitrmd->NEW-hitrmd-var1_2_lig_gen_fit_add_gna

> <s_m_subgroupid>
wzakresie-VAR1-NEW-hitrmd->NEW-hitrmd-var1_2_lig_gen_fit_add_gna

> <b_m_subgroup_collapsed>
0

$$$$
CCC#CCC(C123)(C3)C2C1C[C](=C4)(C4([C]56=7)C7)C6=C5C
                    3D
 Schrodinger Suite 2021-1.
 19 25  0  0  1  0            999 V2000
  -33.8804   13.0712  -26.4501 C   0  0  0  0  0  0
  -32.7533   12.7134  -27.4116 C   0  0  0  0  0  0
  -34.0708   11.9614  -27.4686 C   0  0  0  0  0  0
  -33.3109   12.2902  -28.7475 C   0  0  0  0  0  0
  -34.8396   12.3234  -28.7233 C   0  0  0  0  0  0
  -32.6586   11.0451  -29.3902 C   0  0  0  0  0  0
  -30.4761   12.2618  -30.1218 C   0  0  0  0  0  0
  -31.3891   11.5217  -29.9010 C   0  0  0  0  0  0
  -29.7398   14.0331  -31.5903 C   0  0  0  0  0  0
  -29.5901   13.4011  -30.2243 C   0  0  0  0  0  0
  -34.6040   14.4189  -26.6516 C   0  0  0  0  0  0
  -33.1336   16.6468  -24.3398 C   0  0  0  0  0  0
  -35.3185   16.5527  -25.4258 C   0  0  0  0  0  0
  -33.1672   17.8992  -25.1148 C   0  0  0  0  0  0
  -34.3775   15.3566  -25.4763 C   0  0  0  0  0  0
  -31.9036   15.7900  -24.4497 C   0  0  0  0  0  0
  -33.2915   15.1453  -24.4677 C   0  0  0  0  0  0
  -31.1185   15.5090  -25.7115 C   0  0  0  0  0  0
  -33.8695   16.7478  -25.7681 C   0  0  0  0  0  0
  1  2  1  0  0  0
  1  3  1  0  0  0
  1 11  1  0  0  0
  2  3  1  0  0  0
  2  4  1  0  0  0
  3  4  1  0  0  0
  3  5  1  0  0  0
  4  6  1  0  0  0
  4  5  1  0  0  0
  6  8  1  0  0  0
  7  8  3  0  0  0
  7 10  1  0  0  0
  9 10  1  0  0  0
 11 15  1  0  0  0
 12 14  2  0  0  0
 12 16  1  0  0  0
 12 17  1  0  0  0
 12 19  1  0  0  0
 13 15  2  0  0  0
 13 19  1  0  0  0
 14 19  1  0  0  0
 15 17  1  0  0  0
 15 19  1  0  0  0
 16 17  2  0  0  0
 16 18  1  0  0  0
M  END
> <s_m_entry_id>
8

> <s_m_entry_name>
NEW-hitrmd-var1_3_lig_gen_fit_add_gna.sdf.1

> <minimizedAffinity>
-8.11323

> <minimizedRMSD>
3.4462

> <CNNscore>
0.2345221937

> <CNNaffinity>
6.0454721451

> <CNN_VS>
1.4177974463

> <CNNaffinity_variance>
0.2742410004

> <s_m_Source_Path>
C:\Users\maila\Downloads\mgr\NEW_model_var1_hitrmd

> <s_m_Source_File>
wzakresie-VAR1-NEW-hitrmd.maegz

> <i_m_Source_File_Index>
8

> <s_user_SMILES>
CCC#CCC(C123)(C3)C2C1C[C](=C4)(C4([C]56=7)C7)C6=C5C

> <s_m_subgroup_title>
wzakresie-VAR1-NEW-hitrmd->NEW-hitrmd-var1_3_lig_gen_fit_add_gna

> <s_m_subgroupid>
wzakresie-VAR1-NEW-hitrmd->NEW-hitrmd-var1_3_lig_gen_fit_add_gna

> <b_m_subgroup_collapsed>
0

$$$$
C12C3C(C4=C5)=[C]34C5=C1C26C78C6C7C8C9C(C129)C1C2
                    3D
 Schrodinger Suite 2021-1.
 18 28  0  0  1  0            999 V2000
  -34.2696   17.1869  -24.7165 C   0  0  0  0  0  0
  -32.9773   16.0995  -25.3689 C   0  0  0  0  0  0
  -32.7565   16.8537  -24.3438 C   0  0  0  0  0  0
  -31.7121   15.8577  -25.3023 C   0  0  0  0  0  0
  -34.1860   11.5148  -27.5909 C   0  0  0  0  0  0
  -32.7142   15.0825  -24.5408 C   0  0  0  0  0  0
  -34.8711   12.7524  -27.1036 C   0  0  0  0  0  0
  -34.3603   15.1050  -26.6203 C   0  0  0  0  0  0
  -32.6796   11.6261  -27.4224 C   0  0  0  0  0  0
  -33.5194   12.8818  -27.6635 C   0  0  0  0  0  0
  -34.2665   16.1466  -25.6489 C   0  0  0  0  0  0
  -33.8650   13.6497  -26.3253 C   0  0  0  0  0  0
  -32.8305   14.8074  -26.1764 C   0  0  0  0  0  0
  -30.4331   12.7865  -29.2217 C   0  0  0  0  0  0
  -32.0082   10.8108  -28.5560 C   0  0  0  0  0  0
  -32.2861   11.2981  -29.9676 C   0  0  0  0  0  0
  -31.3829   12.4505  -30.3444 C   0  0  0  0  0  0
  -30.8662   11.3500  -29.4229 C   0  0  0  0  0  0
  1  3  2  0  0  0
  1 11  1  0  0  0
  2  3  1  0  0  0
  2  4  2  0  0  0
  2  6  1  0  0  0
  2 11  1  0  0  0
  3  4  1  0  0  0
  4  6  1  0  0  0
  5  7  1  0  0  0
  5  9  1  0  0  0
  5 10  1  0  0  0
  6 13  1  0  0  0
  7 10  1  0  0  0
  7 12  1  0  0  0
  8 11  2  0  0  0
  8 12  1  0  0  0
  8 13  1  0  0  0
  9 15  1  0  0  0
  9 10  1  0  0  0
 10 12  1  0  0  0
 12 13  1  0  0  0
 14 17  1  0  0  0
 14 18  1  0  0  0
 15 16  1  0  0  0
 15 18  1  0  0  0
 16 17  1  0  0  0
 16 18  1  0  0  0
 17 18  1  0  0  0
M  END
> <s_m_entry_id>
9

> <s_m_entry_name>
NEW-hitrmd-var1_3_lig_gen_fit_add_gna.sdf.2

> <minimizedAffinity>
-9.81614

> <minimizedRMSD>
0.43371

> <CNNscore>
0.4950028062

> <CNNaffinity>
5.8134255409

> <CNN_VS>
2.8776619434

> <CNNaffinity_variance>
0.5418267846

> <s_m_Source_Path>
C:\Users\maila\Downloads\mgr\NEW_model_var1_hitrmd

> <s_m_Source_File>
wzakresie-VAR1-NEW-hitrmd.maegz

> <i_m_Source_File_Index>
9

> <s_user_SMILES>
C12C3C(C4=C5)=[C]34C5=C1C26C78C6C7C8C9C(C129)C1C2

> <s_m_subgroup_title>
wzakresie-VAR1-NEW-hitrmd->NEW-hitrmd-var1_3_lig_gen_fit_add_gna

> <s_m_subgroupid>
wzakresie-VAR1-NEW-hitrmd->NEW-hitrmd-var1_3_lig_gen_fit_add_gna

> <b_m_subgroup_collapsed>
0

$$$$
[C]123[C]45=C3C=C2C=1C5C4CC6CC(C67)C7C8C(C8)C(C9)C9C
                    3D
 Schrodinger Suite 2021-1.
 21 29  0  0  1  0            999 V2000
  -33.3727   10.7820  -28.9260 C   0  0  0  0  0  0
  -31.7626   11.9086  -28.0449 C   0  0  0  0  0  0
  -33.1454   11.4634  -27.5750 C   0  0  0  0  0  0
  -30.8688   10.7610  -28.4858 C   0  0  0  0  0  0
  -31.9952   11.2156  -29.3955 C   0  0  0  0  0  0
  -29.3712   11.0751  -28.6955 C   0  0  0  0  0  0
  -28.5759   11.6674  -29.8667 C   0  0  0  0  0  0
  -28.8406   10.2003  -29.8187 C   0  0  0  0  0  0
  -31.1428   14.0181  -31.3840 C   0  0  0  0  0  0
  -29.8785   13.6847  -30.6382 C   0  0  0  0  0  0
  -29.2578   12.3627  -31.0395 C   0  0  0  0  0  0
  -28.6111   13.6799  -31.4652 C   0  0  0  0  0  0
  -34.1875   12.5626  -27.2865 C   0  0  0  0  0  0
  -32.7057   16.5813  -25.3297 C   0  0  0  0  0  0
  -34.2351   16.7265  -25.6895 C   0  0  0  0  0  0
  -31.8221   15.3459  -25.6293 C   0  0  0  0  0  0
  -32.8863   15.2169  -24.5830 C   0  0  0  0  0  0
  -32.3334   14.0409  -26.1833 C   0  0  0  0  0  0
  -33.6991   13.9318  -26.7789 C   0  0  0  0  0  0
  -33.5617   14.1443  -25.2563 C   0  0  0  0  0  0
  -34.1594   15.5858  -25.1306 C   0  0  0  0  0  0
  1  3  1  0  0  0
  1  5  1  0  0  0
  2  3  1  0  0  0
  2  4  1  0  0  0
  2  5  1  0  0  0
  3 13  1  0  0  0
  4  6  1  0  0  0
  4  5  1  0  0  0
  6  7  1  0  0  0
  6  8  1  0  0  0
  7 11  1  0  0  0
  7  8  1  0  0  0
  9 10  1  0  0  0
 10 11  1  0  0  0
 10 12  1  0  0  0
 11 12  1  0  0  0
 13 19  1  0  0  0
 14 15  2  0  0  0
 14 16  1  0  0  0
 14 17  1  0  0  0
 15 21  1  0  0  0
 16 17  2  0  0  0
 16 18  1  0  0  0
 17 20  1  0  0  0
 17 21  1  0  0  0
 18 19  1  0  0  0
 18 20  1  0  0  0
 19 20  1  0  0  0
 20 21  2  0  0  0
M  END
> <s_m_entry_id>
10

> <s_m_entry_name>
NEW-hitrmd-var1_3_lig_gen_fit_add_gna.sdf.3

> <minimizedAffinity>
-8.56149

> <minimizedRMSD>
0.81059

> <CNNscore>
0.2041066736

> <CNNaffinity>
6.2387628555

> <CNN_VS>
1.273373127

> <CNNaffinity_variance>
0.1703946292

> <s_m_Source_Path>
C:\Users\maila\Downloads\mgr\NEW_model_var1_hitrmd

> <s_m_Source_File>
wzakresie-VAR1-NEW-hitrmd.maegz

> <i_m_Source_File_Index>
10

> <s_user_SMILES>
[C]123[C]45=C3C=C2C=1C5C4CC6CC(C67)C7C8C(C8)C(C9)C9C

> <s_m_subgroup_title>
wzakresie-VAR1-NEW-hitrmd->NEW-hitrmd-var1_3_lig_gen_fit_add_gna

> <s_m_subgroupid>
wzakresie-VAR1-NEW-hitrmd->NEW-hitrmd-var1_3_lig_gen_fit_add_gna

> <b_m_subgroup_collapsed>
0

$$$$
C12C(C2)C1CCCC3C(C3)CC4C(=C5C=C67)C4=C8C6=[C]578
                    3D
 Schrodinger Suite 2021-1.
 20 27  0  0  1  0            999 V2000
  -32.7646   11.0402  -27.8637 C   0  0  0  0  0  0
  -33.8797   11.0134  -28.8921 C   0  0  0  0  0  0
  -34.1734   11.5207  -27.4724 C   0  0  0  0  0  0
  -31.6199   12.0670  -27.9013 C   0  0  0  0  0  0
  -31.3935   12.8303  -29.2138 C   0  0  0  0  0  0
  -30.5742   12.0092  -30.2054 C   0  0  0  0  0  0
  -28.2031   14.2648  -30.4611 C   0  0  0  0  0  0
  -28.6103   13.1819  -31.4358 C   0  0  0  0  0  0
  -29.6216   14.2449  -30.9225 C   0  0  0  0  0  0
  -30.1009   12.8926  -31.3689 C   0  0  0  0  0  0
  -34.7559   12.9480  -27.5038 C   0  0  0  0  0  0
  -32.8627   15.0978  -24.5155 C   0  0  0  0  0  0
  -31.8107   16.4077  -24.3512 C   0  0  0  0  0  0
  -33.1799   16.8994  -24.4968 C   0  0  0  0  0  0
  -34.1808   16.3066  -25.7693 C   0  0  0  0  0  0
  -33.9487   14.1917  -25.3003 C   0  0  0  0  0  0
  -34.8360   15.0893  -26.1632 C   0  0  0  0  0  0
  -32.6577   16.1588  -25.3862 C   0  0  0  0  0  0
  -33.9242   14.0200  -26.7952 C   0  0  0  0  0  0
  -34.4620   17.2353  -24.7429 C   0  0  0  0  0  0
  1  4  1  0  0  0
  1  2  1  0  0  0
  1  3  1  0  0  0
  2  3  1  0  0  0
  3 11  1  0  0  0
  4  5  1  0  0  0
  5  6  1  0  0  0
  6 10  1  0  0  0
  7  8  1  0  0  0
  7  9  1  0  0  0
  8  9  1  0  0  0
  8 10  1  0  0  0
  9 10  1  0  0  0
 11 19  1  0  0  0
 12 13  1  0  0  0
 12 16  2  0  0  0
 12 18  1  0  0  0
 13 14  1  0  0  0
 13 18  2  0  0  0
 14 18  1  0  0  0
 14 20  2  0  0  0
 15 17  2  0  0  0
 15 18  1  0  0  0
 15 20  1  0  0  0
 16 17  1  0  0  0
 16 19  1  0  0  0
 17 19  1  0  0  0
M  END
> <s_m_entry_id>
11

> <s_m_entry_name>
NEW-hitrmd-var1_3_lig_gen_fit_add_gna.sdf.4

> <minimizedAffinity>
-8.54767

> <minimizedRMSD>
0.52938

> <CNNscore>
0.2823036611

> <CNNaffinity>
6.1915693283

> <CNN_VS>
1.7479026318

> <CNNaffinity_variance>
0.2767026722

> <s_m_Source_Path>
C:\Users\maila\Downloads\mgr\NEW_model_var1_hitrmd

> <s_m_Source_File>
wzakresie-VAR1-NEW-hitrmd.maegz

> <i_m_Source_File_Index>
11

> <s_user_SMILES>
C12C(C2)C1CCCC3C(C3)CC4C(=C5C=C67)C4=C8C6=[C]578

> <s_m_subgroup_title>
wzakresie-VAR1-NEW-hitrmd->NEW-hitrmd-var1_3_lig_gen_fit_add_gna

> <s_m_subgroupid>
wzakresie-VAR1-NEW-hitrmd->NEW-hitrmd-var1_3_lig_gen_fit_add_gna

> <b_m_subgroup_collapsed>
0

$$$$
C1=CC2=C3C4C(C5[C]12=[C]345)CCCC6C(C67)C7C8C(C89)C9
                    3D
 Schrodinger Suite 2021-1.
 20 28  0  0  1  0            999 V2000
  -34.4088   12.1796  -28.3661 C   0  0  0  0  0  0
  -34.0906   13.5717  -27.7791 C   0  0  0  0  0  0
  -32.6039   16.3674  -25.6842 C   0  0  0  0  0  0
  -34.1801   17.3927  -24.7750 C   0  0  0  0  0  0
  -32.7876   17.5821  -24.7868 C   0  0  0  0  0  0
  -32.3613   15.0722  -24.9895 C   0  0  0  0  0  0
  -34.0075   16.2168  -25.6630 C   0  0  0  0  0  0
  -33.8336   14.9876  -24.7055 C   0  0  0  0  0  0
  -34.3464   13.6746  -26.2681 C   0  0  0  0  0  0
  -33.1294   13.7890  -25.3586 C   0  0  0  0  0  0
  -34.8956   14.9811  -25.7639 C   0  0  0  0  0  0
  -33.6063   11.0045  -27.7700 C   0  0  0  0  0  0
  -31.1910   11.7885  -28.4810 C   0  0  0  0  0  0
  -32.0051   11.4227  -29.7328 C   0  0  0  0  0  0
  -32.2503   10.6988  -28.4346 C   0  0  0  0  0  0
  -30.6058   11.9569  -29.8777 C   0  0  0  0  0  0
  -28.1897   13.6600  -31.2159 C   0  0  0  0  0  0
  -30.5768   13.3539  -30.5139 C   0  0  0  0  0  0
  -29.3101   14.1675  -30.3444 C   0  0  0  0  0  0
  -29.6112   13.4502  -31.6740 C   0  0  0  0  0  0
  1  2  1  0  0  0
  1 12  1  0  0  0
  2  9  1  0  0  0
  3  5  1  0  0  0
  3  6  2  0  0  0
  3  7  1  0  0  0
  4  5  2  0  0  0
  4  7  1  0  0  0
  6  8  1  0  0  0
  6 10  1  0  0  0
  7  8  2  0  0  0
  7 11  1  0  0  0
  8 10  1  0  0  0
  8 11  1  0  0  0
  9 10  1  0  0  0
  9 11  1  0  0  0
 12 15  1  0  0  0
 13 14  1  0  0  0
 13 15  1  0  0  0
 13 16  1  0  0  0
 14 15  1  0  0  0
 14 16  1  0  0  0
 16 18  1  0  0  0
 17 19  1  0  0  0
 17 20  1  0  0  0
 18 19  1  0  0  0
 18 20  1  0  0  0
 19 20  1  0  0  0
M  END
> <s_m_entry_id>
12

> <s_m_entry_name>
NEW-hitrmd-var1_3_lig_gen_fit_add_gna.sdf.5

> <minimizedAffinity>
-8.89446

> <minimizedRMSD>
1.30715

> <CNNscore>
0.2645927072

> <CNNaffinity>
6.2464675903

> <CNN_VS>
1.652769804

> <CNNaffinity_variance>
0.222733885

> <s_m_Source_Path>
C:\Users\maila\Downloads\mgr\NEW_model_var1_hitrmd

> <s_m_Source_File>
wzakresie-VAR1-NEW-hitrmd.maegz

> <i_m_Source_File_Index>
12

> <s_user_SMILES>
C1=CC2=C3C4C(C5[C]12=[C]345)CCCC6C(C67)C7C8C(C89)C9

> <s_m_subgroup_title>
wzakresie-VAR1-NEW-hitrmd->NEW-hitrmd-var1_3_lig_gen_fit_add_gna

> <s_m_subgroupid>
wzakresie-VAR1-NEW-hitrmd->NEW-hitrmd-var1_3_lig_gen_fit_add_gna

> <b_m_subgroup_collapsed>
0

$$$$
C[C@@H]1C=CC=CC1=C=CCC[C@H]2[C@H](C2)CC3CC3
                    3D
 Schrodinger Suite 2021-1.
 18 20  0  0  1  0            999 V2000
  -32.0298   16.0540  -24.4483 C   0  0  0  0  0  0
  -32.6662   17.4328  -24.2744 C   0  0  0  0  0  0
  -34.1432   17.4187  -24.6322 C   0  0  0  0  0  0
  -32.3466   15.5490  -25.8411 C   0  0  2  0  0  0
  -34.6612   16.5507  -25.4877 C   0  0  0  0  0  0
  -35.1108   13.3780  -26.9512 C   0  0  0  0  0  0
  -33.8519   15.4559  -26.0054 C   0  0  0  0  0  0
  -31.6021   14.2683  -26.2010 C   0  0  0  0  0  0
  -34.4672   14.4084  -26.4837 C   0  0  0  0  0  0
  -34.4973   12.4745  -27.9629 C   0  0  0  0  0  0
  -33.3935   11.6830  -27.2824 C   0  0  0  0  0  0
  -32.7595   10.6656  -28.2230 C   0  0  2  0  0  0
  -31.3208   10.3821  -27.8142 C   0  0  0  0  0  0
  -31.6136   10.9974  -29.1812 C   0  0  2  0  0  0
  -31.2251   12.4713  -29.3661 C   0  0  0  0  0  0
  -29.1850   13.7561  -30.2801 C   0  0  0  0  0  0
  -30.2687   13.8479  -31.3383 C   0  0  0  0  0  0
  -30.1650   12.6040  -30.4677 C   0  0  0  0  0  0
  1  2  2  0  0  0
  1  4  1  0  0  0
  2  3  1  0  0  0
  3  5  2  0  0  0
  4  7  1  0  0  0
  4  8  1  0  0  0
  5  7  1  0  0  0
  6 10  1  0  0  0
  6  9  2  0  0  0
  7  9  2  0  0  0
 10 11  1  0  0  0
 11 12  1  0  0  0
 12 13  1  0  0  0
 12 14  1  0  0  0
 13 14  1  0  0  0
 14 15  1  0  0  0
 15 18  1  0  0  0
 16 17  1  0  0  0
 16 18  1  0  0  0
 17 18  1  0  0  0
M  END
> <s_m_entry_id>
13

> <s_m_entry_name>
NEW-hitrmd-var1_3_lig_gen_fit_add_gna.sdf.6

> <minimizedAffinity>
-8.04302

> <minimizedRMSD>
0.71628

> <CNNscore>
0.2642928064

> <CNNaffinity>
5.912712574

> <CNN_VS>
1.562687397

> <CNNaffinity_variance>
0.3058759868

> <s_m_Source_Path>
C:\Users\maila\Downloads\mgr\NEW_model_var1_hitrmd

> <s_m_Source_File>
wzakresie-VAR1-NEW-hitrmd.maegz

> <i_m_Source_File_Index>
13

> <s_user_SMILES>
C[C@@H]1C=CC=CC1=C=CCC[C@H]2[C@H](C2)CC3CC3

> <s_m_subgroup_title>
wzakresie-VAR1-NEW-hitrmd->NEW-hitrmd-var1_3_lig_gen_fit_add_gna

> <s_m_subgroupid>
wzakresie-VAR1-NEW-hitrmd->NEW-hitrmd-var1_3_lig_gen_fit_add_gna

> <b_m_subgroup_collapsed>
0

$$$$
C1CC1CCC2C(C23)C3C[C]4(C5)=C6C=C7C5=[C]467
                    3D
 Schrodinger Suite 2021-1.
 17 23  0  0  1  0            999 V2000
  -32.5190   12.4064  -28.1029 C   0  0  0  0  0  0
  -32.9170   12.2389  -26.6518 C   0  0  0  0  0  0
  -33.5114   13.4768  -26.0085 C   0  0  0  0  0  0
  -33.5373   13.3649  -27.5207 C   0  0  0  0  0  0
  -31.0878   12.9280  -28.2983 C   0  0  0  0  0  0
  -30.5864   12.6792  -29.7267 C   0  0  0  0  0  0
  -28.5152   13.3728  -31.1431 C   0  0  0  0  0  0
  -29.6325   13.7914  -30.1948 C   0  0  0  0  0  0
  -29.7317   14.1007  -31.6824 C   0  0  0  0  0  0
  -32.4764   14.4510  -25.4141 C   0  0  0  0  0  0
  -35.2822   17.4109  -25.2108 C   0  0  0  0  0  0
  -33.0478   16.8202  -25.6833 C   0  0  0  0  0  0
  -32.6507   17.4279  -24.5841 C   0  0  0  0  0  0
  -33.8695   17.7987  -25.2604 C   0  0  0  0  0  0
  -32.3290   16.5214  -23.5968 C   0  0  0  0  0  0
  -33.1209   15.7011  -24.7680 C   0  0  0  0  0  0
  -34.4338   16.4017  -25.3951 C   0  0  0  0  0  0
  1  2  1  0  0  0
  1  5  1  0  0  0
  1  4  1  0  0  0
  2  3  1  0  0  0
  2  4  1  0  0  0
  3 10  1  0  0  0
  3  4  1  0  0  0
  5  6  1  0  0  0
  6  8  1  0  0  0
  7  8  1  0  0  0
  7  9  1  0  0  0
  8  9  1  0  0  0
 10 16  1  0  0  0
 11 14  2  0  0  0
 11 17  1  0  0  0
 12 13  2  0  0  0
 12 14  1  0  0  0
 12 16  1  0  0  0
 12 17  1  0  0  0
 13 14  1  0  0  0
 13 15  1  0  0  0
 15 16  1  0  0  0
 16 17  2  0  0  0
M  END
> <s_m_entry_id>
14

> <s_m_entry_name>
NEW-hitrmd-var1_3_lig_gen_fit_add_gna.sdf.7

> <minimizedAffinity>
-8.23486

> <minimizedRMSD>
0.92353

> <CNNscore>
0.4335435927

> <CNNaffinity>
5.5110673904

> <CNN_VS>
2.3892879486

> <CNNaffinity_variance>
0.7373569608

> <s_m_Source_Path>
C:\Users\maila\Downloads\mgr\NEW_model_var1_hitrmd

> <s_m_Source_File>
wzakresie-VAR1-NEW-hitrmd.maegz

> <i_m_Source_File_Index>
14

> <s_user_SMILES>
C1CC1CCC2C(C23)C3C[C]4(C5)=C6C=C7C5=[C]467

> <s_m_subgroup_title>
wzakresie-VAR1-NEW-hitrmd->NEW-hitrmd-var1_3_lig_gen_fit_add_gna

> <s_m_subgroupid>
wzakresie-VAR1-NEW-hitrmd->NEW-hitrmd-var1_3_lig_gen_fit_add_gna

> <b_m_subgroup_collapsed>
0

$$$$
C12C3C2(C134)C4CC5C6C7C56C7([C]8=9C123)[C]38=CC2=C1C9
                    3D
 Schrodinger Suite 2021-1.
 18 29  0  0  1  0            999 V2000
  -31.6031   15.0850  -26.2079 C   0  0  0  0  0  0
  -33.4319   15.8711  -24.7948 C   0  0  0  0  0  0
  -32.8493   14.5379  -24.6463 C   0  0  0  0  0  0
  -32.6027   13.9765  -26.0229 C   0  0  0  0  0  0
  -31.9456   15.5893  -24.8478 C   0  0  0  0  0  0
  -34.8574   13.0170  -27.4167 C   0  0  0  0  0  0
  -32.9531   11.4385  -27.2236 C   0  0  0  0  0  0
  -34.0314   14.4278  -25.6497 C   0  0  0  0  0  0
  -34.4567   15.9565  -25.5441 C   0  0  0  0  0  0
  -34.4007   11.6011  -27.6492 C   0  0  0  0  0  0
  -33.4443   12.7284  -27.8795 C   0  0  0  0  0  0
  -33.7250   14.0453  -27.0981 C   0  0  0  0  0  0
  -32.0878   10.5771  -28.1506 C   0  0  0  0  0  0
  -29.5827   12.7075  -29.9928 C   0  0  0  0  0  0
  -30.7180   11.2328  -28.3354 C   0  0  0  0  0  0
  -30.2526   11.3332  -29.7664 C   0  0  0  0  0  0
  -30.9726   12.3866  -30.5452 C   0  0  0  0  0  0
  -30.7263   12.5683  -29.0423 C   0  0  0  0  0  0
  1  4  2  0  0  0
  1  5  1  0  0  0
  2  3  1  0  0  0
  2  5  2  0  0  0
  2  9  1  0  0  0
  3  4  1  0  0  0
  3  5  1  0  0  0
  3  8  1  0  0  0
  4  8  1  0  0  0
  4 12  1  0  0  0
  6 10  1  0  0  0
  6 11  1  0  0  0
  6 12  1  0  0  0
  7 10  1  0  0  0
  7 11  1  0  0  0
  7 13  1  0  0  0
  8  9  2  0  0  0
  8 12  1  0  0  0
 10 11  1  0  0  0
 11 12  1  0  0  0
 13 15  1  0  0  0
 14 16  1  0  0  0
 14 17  1  0  0  0
 14 18  1  0  0  0
 15 16  1  0  0  0
 15 18  1  0  0  0
 16 17  1  0  0  0
 16 18  1  0  0  0
 17 18  1  0  0  0
M  END
> <s_m_entry_id>
15

> <s_m_entry_name>
NEW-hitrmd-var1_3_lig_gen_fit_add_gna.sdf.9

> <minimizedAffinity>
-8.62132

> <minimizedRMSD>
1.25506

> <CNNscore>
0.2322634906

> <CNNaffinity>
5.8480367661

> <CNN_VS>
1.3582854271

> <CNNaffinity_variance>
0.2211571187

> <s_m_Source_Path>
C:\Users\maila\Downloads\mgr\NEW_model_var1_hitrmd

> <s_m_Source_File>
wzakresie-VAR1-NEW-hitrmd.maegz

> <i_m_Source_File_Index>
15

> <s_user_SMILES>
C12C3C2(C134)C4CC5C6C7C56C7([C]8=9C123)[C]38=CC2=C1C9

> <s_m_subgroup_title>
wzakresie-VAR1-NEW-hitrmd->NEW-hitrmd-var1_3_lig_gen_fit_add_gna

> <s_m_subgroupid>
wzakresie-VAR1-NEW-hitrmd->NEW-hitrmd-var1_3_lig_gen_fit_add_gna

> <b_m_subgroup_collapsed>
0

$$$$
C1CC1CC(=C2)C(C23)C=3CC4C5C4C6[C]5(=[C]678)CC7=C8
                    3D
 Schrodinger Suite 2021-1.
 19 26  0  0  1  0            999 V2000
  -35.8659   24.4659  -10.2834 C   0  0  0  0  0  0
  -33.9774   23.5837  -11.6061 C   0  0  0  0  0  0
  -32.4794   22.3749  -12.6029 C   0  0  0  0  0  0
  -32.2949   22.6167  -11.0790 C   0  0  0  0  0  0
  -33.6089   24.1642  -12.9989 C   0  0  0  0  0  0
  -32.6340   23.6339  -12.1045 C   0  0  0  0  0  0
  -35.0577   22.8665  -12.2534 C   0  0  0  0  0  0
  -35.8034   23.9216  -11.8882 C   0  0  0  0  0  0
  -34.9499   23.6331  -13.6708 C   0  0  0  0  0  0
  -33.5523   22.6723  -10.4609 C   0  0  0  0  0  0
  -36.6139   23.5962   -9.2520 C   0  0  0  0  0  0
  -35.9425   23.3335   -8.0733 C   0  0  0  0  0  0
  -36.9326   24.2349   -8.0720 C   0  0  0  0  0  0
  -36.9253   24.5489   -6.6420 C   0  0  0  0  0  0
  -35.6763   23.3256   -6.6314 C   0  0  0  0  0  0
  -36.4202   25.9869   -6.3944 C   0  0  0  0  0  0
  -36.2126   27.7097   -4.5298 C   0  0  0  0  0  0
  -35.9996   26.2602   -4.9559 C   0  0  0  0  0  0
  -34.8065   27.1540   -4.6591 C   0  0  0  0  0  0
  1 11  1  0  0  0
  1  8  1  0  0  0
  2  5  1  0  0  0
  2  6  2  0  0  0
  2  7  1  0  0  0
  2 10  1  0  0  0
  3  4  2  0  0  0
  3  6  1  0  0  0
  4  6  1  0  0  0
  4 10  1  0  0  0
  5  6  1  0  0  0
  5  9  1  0  0  0
  7  8  1  0  0  0
  7  9  1  0  0  0
  8  9  1  0  0  0
 11 12  2  0  0  0
 11 13  1  0  0  0
 12 13  1  0  0  0
 12 15  1  0  0  0
 13 14  1  0  0  0
 14 15  2  0  0  0
 14 16  1  0  0  0
 16 18  1  0  0  0
 17 18  1  0  0  0
 17 19  1  0  0  0
 18 19  1  0  0  0
M  END
> <s_m_entry_id>
16

> <s_m_entry_name>
NEW-hitrmd-var1_4_lig_gen_fit_add_gna.sdf.6

> <minimizedAffinity>
-8.84751

> <minimizedRMSD>
2.38683

> <CNNscore>
0.3732723594

> <CNNaffinity>
5.5562334061

> <CNN_VS>
2.0739884377

> <CNNaffinity_variance>
0.2620798051

> <s_m_Source_Path>
C:\Users\maila\Downloads\mgr\NEW_model_var1_hitrmd

> <s_m_Source_File>
wzakresie-VAR1-NEW-hitrmd.maegz

> <i_m_Source_File_Index>
16

> <s_user_SMILES>
C1CC1CC(=C2)C(C23)C=3CC4C5C4C6[C]5(=[C]678)CC7=C8

> <s_m_subgroup_title>
wzakresie-VAR1-NEW-hitrmd->NEW-hitrmd-var1_4_lig_gen_fit_add_gna

> <s_m_subgroupid>
wzakresie-VAR1-NEW-hitrmd->NEW-hitrmd-var1_4_lig_gen_fit_add_gna

> <b_m_subgroup_collapsed>
0

$$$$
C12C(C2)C1CC3C(C345)C4C5[C]6(=C7C8=C9)CC([C]16=[C]789)=C1
                    3D
 Schrodinger Suite 2021-1.
 19 28  0  0  1  0            999 V2000
  -25.9642   72.2144 -131.2010 C   0  0  0  0  0  0
  -25.3345   71.4415 -130.0317 C   0  0  0  0  0  0
  -24.5465   71.6073 -131.3230 C   0  0  0  0  0  0
  -25.3580   71.9369 -132.5550 C   0  0  0  0  0  0
  -26.8270   71.6299 -132.3439 C   0  0  0  0  0  0
  -26.7614   69.3878 -128.2351 C   0  0  0  0  0  0
  -26.2064   69.1984 -126.9516 C   0  0  0  0  0  0
  -24.4799   69.0184 -129.6635 C   0  0  0  0  0  0
  -23.3095   69.4378 -128.6164 C   0  0  0  0  0  0
  -23.4486   67.9778 -128.7514 C   0  0  0  0  0  0
  -25.6649   70.0173 -129.5477 C   0  0  0  0  0  0
  -25.4659   69.7966 -127.9736 C   0  0  0  0  0  0
  -27.1953   69.6309 -129.5291 C   0  0  0  0  0  0
  -24.4643   68.7401 -128.3094 C   0  0  0  0  0  0
  -27.0562   70.1477 -132.6644 C   0  0  0  0  0  0
  -28.8489   68.4725 -133.4217 C   0  0  0  0  0  0
  -28.4463   69.9315 -133.2886 C   0  0  0  0  0  0
  -30.2942   68.2493 -133.0488 C   0  0  0  0  0  0
  -29.5342   69.3778 -132.3836 C   0  0  0  0  0  0
  1  2  1  0  0  0
  1  3  1  0  0  0
  1  4  1  0  0  0
  1  5  1  0  0  0
  2 11  1  0  0  0
  2  3  1  0  0  0
  3  4  1  0  0  0
  4  5  1  0  0  0
  5 15  1  0  0  0
  6  7  2  0  0  0
  6 12  1  0  0  0
  6 13  1  0  0  0
  7 12  1  0  0  0
  8  9  1  0  0  0
  8 11  2  0  0  0
  8 14  1  0  0  0
  9 10  2  0  0  0
  9 14  1  0  0  0
 10 14  1  0  0  0
 11 12  1  0  0  0
 11 13  1  0  0  0
 12 14  2  0  0  0
 15 17  1  0  0  0
 16 17  1  0  0  0
 16 18  1  0  0  0
 16 19  1  0  0  0
 17 19  1  0  0  0
 18 19  1  0  0  0
M  END
> <s_m_entry_id>
17

> <s_m_entry_name>
NEW-hitrmd-var1_5_lig_gen_fit_add_gna.sdf.2

> <minimizedAffinity>
-8.21411

> <minimizedRMSD>
0.96422

> <CNNscore>
0.2510448098

> <CNNaffinity>
5.9982347488

> <CNN_VS>
1.505825758

> <CNNaffinity_variance>
0.0871569142

> <s_m_Source_Path>
C:\Users\maila\Downloads\mgr\NEW_model_var1_hitrmd

> <s_m_Source_File>
wzakresie-VAR1-NEW-hitrmd.maegz

> <i_m_Source_File_Index>
17

> <s_user_SMILES>
C12C(C2)C1CC3C(C345)C4C5[C]6(=C7C8=C9)CC([C]16=[C]789)=C1

> <s_m_subgroup_title>
wzakresie-VAR1-NEW-hitrmd->NEW-hitrmd-var1_5_lig_gen_fit_add_gna

> <s_m_subgroupid>
wzakresie-VAR1-NEW-hitrmd->NEW-hitrmd-var1_5_lig_gen_fit_add_gna

> <b_m_subgroup_collapsed>
0

$$$$
CCCC1C(C123)C2CC3C4=C5C6=CC=C7C4=[C]567
                    3D
 Schrodinger Suite 2021-1.
 17 23  0  0  1  0            999 V2000
  -26.9654   71.3181 -131.0331 C   0  0  0  0  0  0
  -24.4646   71.7477 -131.5150 C   0  0  0  0  0  0
  -23.7564   70.4408 -131.3271 C   0  0  0  0  0  0
  -25.8772   71.6783 -132.0186 C   0  0  0  0  0  0
  -25.5263   71.3454 -130.5223 C   0  0  0  0  0  0
  -24.8137   69.9913 -130.3395 C   0  0  0  0  0  0
  -25.6938   68.9695 -126.7940 C   0  0  0  0  0  0
  -25.1366   68.3454 -125.7631 C   0  0  0  0  0  0
  -24.5202   67.2107 -126.4796 C   0  0  0  0  0  0
  -25.5213   69.8727 -128.0854 C   0  0  0  0  0  0
  -24.8037   67.5438 -127.7231 C   0  0  0  0  0  0
  -25.7634   68.4463 -128.1889 C   0  0  0  0  0  0
  -24.5526   68.6553 -128.7728 C   0  0  0  0  0  0
  -24.1638   69.8519 -128.9174 C   0  0  0  0  0  0
  -27.7389   70.0080 -131.3323 C   0  0  0  0  0  0
  -29.4476   69.2890 -133.0519 C   0  0  0  0  0  0
  -28.0053   69.7316 -132.8237 C   0  0  0  0  0  0
  1 15  1  0  0  0
  1  4  1  0  0  0
  1  5  1  0  0  0
  2  3  1  0  0  0
  2  4  1  0  0  0
  2  5  1  0  0  0
  3  6  1  0  0  0
  4  5  1  0  0  0
  5  6  1  0  0  0
  6 14  1  0  0  0
  7  8  2  0  0  0
  7 10  1  0  0  0
  7 12  1  0  0  0
  8  9  1  0  0  0
  9 11  2  0  0  0
 10 12  2  0  0  0
 10 14  1  0  0  0
 11 12  1  0  0  0
 11 13  1  0  0  0
 12 13  1  0  0  0
 13 14  2  0  0  0
 15 17  1  0  0  0
 16 17  1  0  0  0
M  END
> <s_m_entry_id>
18

> <s_m_entry_name>
NEW-hitrmd-var1_5_lig_gen_fit_add_gna.sdf.8

> <minimizedAffinity>
-8.15218

> <minimizedRMSD>
0.72722

> <CNNscore>
0.3920612633

> <CNNaffinity>
5.6424474716

> <CNN_VS>
2.2121851444

> <CNNaffinity_variance>
0.374083668

> <s_m_Source_Path>
C:\Users\maila\Downloads\mgr\NEW_model_var1_hitrmd

> <s_m_Source_File>
wzakresie-VAR1-NEW-hitrmd.maegz

> <i_m_Source_File_Index>
18

> <s_user_SMILES>
CCCC1C(C123)C2CC3C4=C5C6=CC=C7C4=[C]567

> <s_m_subgroup_title>
wzakresie-VAR1-NEW-hitrmd->NEW-hitrmd-var1_5_lig_gen_fit_add_gna

> <s_m_subgroupid>
wzakresie-VAR1-NEW-hitrmd->NEW-hitrmd-var1_5_lig_gen_fit_add_gna

> <b_m_subgroup_collapsed>
0

$$$$
C12C(C2)C1CCC3C(C345)C4C5C([C]6(=C78)C)=C9C(=[C]18C679)C1
                    3D
 Schrodinger Suite 2021-1.
 20 29  0  0  1  0            999 V2000
  -25.2439   72.0305 -132.1173 C   0  0  0  0  0  0
  -23.6316   70.0110 -130.7316 C   0  0  0  0  0  0
  -24.2672   69.6903 -132.0400 C   0  0  0  0  0  0
  -24.7016   70.8502 -132.9068 C   0  0  0  0  0  0
  -24.0499   71.1872 -131.5991 C   0  0  0  0  0  0
  -25.2122   68.0005 -127.1304 C   0  0  0  0  0  0
  -23.7522   69.2967 -128.2245 C   0  0  0  0  0  0
  -24.0211   67.7754 -128.1253 C   0  0  0  0  0  0
  -25.6576   69.6448 -128.8723 C   0  0  0  0  0  0
  -24.3116   69.5155 -129.4882 C   0  0  0  0  0  0
  -26.2081   68.5045 -128.0730 C   0  0  0  0  0  0
  -24.0444   67.0702 -126.8769 C   0  0  0  0  0  0
  -25.1042   69.4499 -127.5361 C   0  0  0  0  0  0
  -26.4623   70.8110 -129.1835 C   0  0  0  0  0  0
  -26.8035   72.0106 -132.1019 C   0  0  0  0  0  0
  -27.5401   71.0804 -133.0970 C   0  0  0  0  0  0
  -29.4811   69.6752 -132.0350 C   0  0  0  0  0  0
  -28.0412   69.7477 -132.5089 C   0  0  0  0  0  0
  -30.1735   68.4387 -132.5679 C   0  0  0  0  0  0
  -29.0754   69.0684 -133.3871 C   0  0  0  0  0  0
  1 15  1  0  0  0
  1  4  1  0  0  0
  1  5  1  0  0  0
  2 10  1  0  0  0
  2  3  1  0  0  0
  2  5  1  0  0  0
  3  4  1  0  0  0
  3  5  1  0  0  0
  4  5  1  0  0  0
  6  8  2  0  0  0
  6 11  1  0  0  0
  6 12  1  0  0  0
  6 13  1  0  0  0
  7  8  1  0  0  0
  7 10  2  0  0  0
  7 13  1  0  0  0
  8 12  1  0  0  0
  9 10  1  0  0  0
  9 11  2  0  0  0
  9 13  1  0  0  0
  9 14  1  0  0  0
 11 13  1  0  0  0
 15 16  1  0  0  0
 16 18  1  0  0  0
 17 18  1  0  0  0
 17 19  1  0  0  0
 17 20  1  0  0  0
 18 20  1  0  0  0
 19 20  1  0  0  0
M  END
> <s_m_entry_id>
19

> <s_m_entry_name>
NEW-hitrmd-var1_5_lig_gen_fit_add_gna.sdf.9

> <minimizedAffinity>
-8.56757

> <minimizedRMSD>
0.37656

> <CNNscore>
0.2401284277

> <CNNaffinity>
6.1675858498

> <CNN_VS>
1.481012702

> <CNNaffinity_variance>
0.1638783514

> <s_m_Source_Path>
C:\Users\maila\Downloads\mgr\NEW_model_var1_hitrmd

> <s_m_Source_File>
wzakresie-VAR1-NEW-hitrmd.maegz

> <i_m_Source_File_Index>
19

> <s_user_SMILES>
C12C(C2)C1CCC3C(C345)C4C5C([C]6(=C78)C)=C9C(=[C]18C679)C1

> <s_m_subgroup_title>
wzakresie-VAR1-NEW-hitrmd->NEW-hitrmd-var1_5_lig_gen_fit_add_gna

> <s_m_subgroupid>
wzakresie-VAR1-NEW-hitrmd->NEW-hitrmd-var1_5_lig_gen_fit_add_gna

> <b_m_subgroup_collapsed>
0

$$$$
CC=1C2=C([C]123)C3=C=C(C4C(C45)C5)CC6C7C=C([C]67=8)C8
                    3D
 Schrodinger Suite 2021-1.
 19 26  0  0  1  0            999 V2000
   44.8584    9.6746    9.9563 C   0  0  0  0  0  0
   45.3813   10.0939   11.3849 C   0  0  0  0  0  0
   47.8502    9.2672   10.1540 C   0  0  0  0  0  0
   45.2534    8.7767   10.9059 C   0  0  0  0  0  0
   44.6058    8.2470    9.6624 C   0  0  0  0  0  0
   43.9440    6.2067    8.1693 C   0  0  0  0  0  0
   46.4145    9.4054   10.5565 C   0  0  0  0  0  0
   44.2542    7.2559    8.8943 C   0  0  0  0  0  0
   42.0044    4.4697   10.8292 C   0  0  0  0  0  0
   42.8293    5.2899    8.6114 C   0  0  0  0  0  0
   43.1433    4.5305    9.8759 C   0  0  0  0  0  0
   42.0697    5.6474    9.8807 C   0  0  0  0  0  0
   44.9952    5.7123    7.2111 C   0  0  0  0  0  0
   45.4496    1.6428    6.8935 C   0  0  0  0  0  0
   45.9573    2.2760    5.9090 C   0  0  0  0  0  0
   45.4755    3.1276    7.4078 C   0  0  0  0  0  0
   45.8735    3.2769    4.7881 C   0  0  0  0  0  0
   46.1097    3.7421    6.0900 C   0  0  0  0  0  0
   44.8094    4.2842    6.6818 C   0  0  0  0  0  0
  1  2  2  0  0  0
  1  4  1  0  0  0
  1  5  1  0  0  0
  2  4  1  0  0  0
  2  7  1  0  0  0
  3  7  1  0  0  0
  4  5  1  0  0  0
  4  7  2  0  0  0
  5  8  2  0  0  0
  6 10  1  0  0  0
  6 13  1  0  0  0
  6  8  2  0  0  0
  9 11  1  0  0  0
  9 12  1  0  0  0
 10 11  1  0  0  0
 10 12  1  0  0  0
 11 12  1  0  0  0
 13 19  1  0  0  0
 14 15  2  0  0  0
 14 16  1  0  0  0
 15 17  1  0  0  0
 15 18  1  0  0  0
 16 18  1  0  0  0
 16 19  1  0  0  0
 17 18  2  0  0  0
 18 19  1  0  0  0
M  END
> <s_m_entry_id>
20

> <s_m_entry_name>
NEW-hitrmd-var1_15_lig_gen_fit_add_gna.sdf.2

> <minimizedAffinity>
-9.10503

> <minimizedRMSD>
0.83507

> <CNNscore>
0.323158741

> <CNNaffinity>
5.9290380478

> <CNN_VS>
1.9160205126

> <CNNaffinity_variance>
0.0560198911

> <s_m_Source_Path>
C:\Users\maila\Downloads\mgr\NEW_model_var1_hitrmd

> <s_m_Source_File>
wzakresie-VAR1-NEW-hitrmd.maegz

> <i_m_Source_File_Index>
20

> <s_user_SMILES>
CC=1C2=C([C]123)C3=C=C(C4C(C45)C5)CC6C7C=C([C]67=8)C8

> <s_m_subgroup_title>
wzakresie-VAR1-NEW-hitrmd->NEW-hitrmd-var1_15_lig_gen_fit_add_gna

> <s_m_subgroupid>
wzakresie-VAR1-NEW-hitrmd->NEW-hitrmd-var1_15_lig_gen_fit_add_gna

> <b_m_subgroup_collapsed>
0

$$$$
C1C[C]12=[C]3([C]24=[C]356)C5=[C]46C=CC7(C(C789)C8C9)C1[C]2([C]1=3[C]124)=CC=1C4C3C
                    3D
 Schrodinger Suite 2021-1.
 24 37  0  0  1  0            999 V2000
   41.6317    6.8593   10.6082 C   0  0  0  0  0  0
   43.2641    6.0550    8.8667 C   0  0  0  0  0  0
   41.9269    6.7248    9.1390 C   0  0  0  0  0  0
   42.5020    5.7115   10.1531 C   0  0  0  0  0  0
   41.9325    8.1006    9.7954 C   0  0  0  0  0  0
   43.1768    2.1521    8.2264 C   0  0  0  0  0  0
   43.8625    3.5703    8.5988 C   0  0  0  0  0  0
   44.4594    2.0539    7.7620 C   0  0  0  0  0  0
   45.2399    3.0766    8.0774 C   0  0  0  0  0  0
   45.1679    2.7721    6.7901 C   0  0  0  0  0  0
   44.8137    3.8221    5.9817 C   0  0  0  0  0  0
   44.6837    4.3982    7.4830 C   0  0  0  0  0  0
   45.9850    4.3947    5.2505 C   0  0  0  0  0  0
   43.2885    4.8241    7.9283 C   0  0  0  0  0  0
   45.1318    7.8534    8.3546 C   0  0  0  0  0  0
   44.5335    6.8573    9.0730 C   0  0  0  0  0  0
   48.0782    9.8847    8.6950 C   0  0  0  0  0  0
   49.0353    8.7126    8.4015 C   0  0  0  0  0  0
   49.9087    8.4972    7.1348 C   0  0  0  0  0  0
   47.6743    8.7614    7.6917 C   0  0  0  0  0  0
   46.7101    9.6503    8.2989 C   0  0  0  0  0  0
   46.9847    9.3874    9.7054 C   0  0  0  0  0  0
   46.6171    8.2550    8.7056 C   0  0  0  0  0  0
   50.2981    9.5521    8.0764 C   0  0  0  0  0  0
  1  3  1  0  0  0
  1  4  1  0  0  0
  1  5  1  0  0  0
  2 16  1  0  0  0
  2  3  1  0  0  0
  2  4  1  0  0  0
  2 14  1  0  0  0
  3  4  1  0  0  0
  3  5  1  0  0  0
  6  7  2  0  0  0
  6  8  1  0  0  0
  7  9  1  0  0  0
  7 12  1  0  0  0
  7 14  1  0  0  0
  8  9  2  0  0  0
  8 10  1  0  0  0
  9 10  1  0  0  0
  9 12  1  0  0  0
 10 11  1  0  0  0
 11 12  2  0  0  0
 11 13  1  0  0  0
 12 14  1  0  0  0
 15 16  2  0  0  0
 15 23  1  0  0  0
 17 18  2  0  0  0
 17 20  1  0  0  0
 17 21  1  0  0  0
 17 22  1  0  0  0
 18 19  1  0  0  0
 18 20  1  0  0  0
 18 24  1  0  0  0
 19 24  1  0  0  0
 20 21  2  0  0  0
 20 23  1  0  0  0
 21 22  1  0  0  0
 21 23  1  0  0  0
 22 23  2  0  0  0
M  END
> <s_m_entry_id>
21

> <s_m_entry_name>
NEW-hitrmd-var1_15_lig_gen_fit_add_gna.sdf.3

> <minimizedAffinity>
-9.45747

> <minimizedRMSD>
0.99151

> <CNNscore>
0.3805095851

> <CNNaffinity>
6.5461988449

> <CNN_VS>
2.4908914566

> <CNNaffinity_variance>
0.0493320525

> <s_m_Source_Path>
C:\Users\maila\Downloads\mgr\NEW_model_var1_hitrmd

> <s_m_Source_File>
wzakresie-VAR1-NEW-hitrmd.maegz

> <i_m_Source_File_Index>
21

> <s_user_SMILES>
C1C[C]12=[C]3([C]24=[C]356)C5=[C]46C=CC7(C(C789)C8C9)C1[C]2([C]1=3[C]124)=CC=1C4C3C

> <s_m_subgroup_title>
wzakresie-VAR1-NEW-hitrmd->NEW-hitrmd-var1_15_lig_gen_fit_add_gna

> <s_m_subgroupid>
wzakresie-VAR1-NEW-hitrmd->NEW-hitrmd-var1_15_lig_gen_fit_add_gna

> <b_m_subgroup_collapsed>
0

$$$$
C1C2=[C]13[C]2(C345)=C5C4=C=CC(CC)C(=C6C7)C8([C]6=79)C9=C8
                    3D
 Schrodinger Suite 2021-1.
 19 27  0  0  1  0            999 V2000
   43.0546    4.2314    8.4698 C   0  0  0  0  0  0
   44.6063    8.9902    9.6084 C   0  0  0  0  0  0
   45.6503    9.6573    8.7270 C   0  0  0  0  0  0
   44.4227    7.5780    8.9900 C   0  0  0  0  0  0
   45.7391    8.2051    9.3040 C   0  0  0  0  0  0
   46.6739    8.7439    8.2549 C   0  0  0  0  0  0
   42.9081    5.6726    8.0477 C   0  0  0  0  0  0
   43.6836    6.6203    8.5061 C   0  0  0  0  0  0
   48.0675    8.9750    8.7881 C   0  0  0  0  0  0
   47.0796   10.1028    8.9417 C   0  0  0  0  0  0
   46.0894    3.3301    6.0324 C   0  0  0  0  0  0
   45.2270    1.2905    6.8013 C   0  0  0  0  0  0
   45.9269    2.5398    7.3304 C   0  0  0  0  0  0
   45.5425    4.7283    5.9687 C   0  0  0  0  0  0
   45.3631    3.9660    7.2417 C   0  0  0  0  0  0
   43.9509    3.4553    7.4465 C   0  0  0  0  0  0
   44.5067    2.1002    7.8213 C   0  0  0  0  0  0
   42.0641    4.2701   10.8500 C   0  0  0  0  0  0
   43.3195    4.1287    9.9989 C   0  0  0  0  0  0
  1  7  1  0  0  0
  1 19  1  0  0  0
  1 16  1  0  0  0
  2  3  2  0  0  0
  2  4  1  0  0  0
  2  5  1  0  0  0
  3  5  1  0  0  0
  3  6  1  0  0  0
  3 10  1  0  0  0
  4  5  1  0  0  0
  4  8  2  0  0  0
  5  6  1  0  0  0
  6  9  1  0  0  0
  6 10  2  0  0  0
  7  8  2  0  0  0
  9 10  1  0  0  0
 11 13  1  0  0  0
 11 14  2  0  0  0
 11 15  1  0  0  0
 12 13  2  0  0  0
 12 17  1  0  0  0
 13 15  1  0  0  0
 13 17  1  0  0  0
 14 15  1  0  0  0
 15 16  1  0  0  0
 16 17  2  0  0  0
 18 19  1  0  0  0
M  END
> <s_m_entry_id>
22

> <s_m_entry_name>
NEW-hitrmd-var1_15_lig_gen_fit_add_gna.sdf.9

> <minimizedAffinity>
-8.77347

> <minimizedRMSD>
0.98514

> <CNNscore>
0.2705407143

> <CNNaffinity>
5.7593941689

> <CNN_VS>
1.5581506491

> <CNNaffinity_variance>
0.136071831

> <s_m_Source_Path>
C:\Users\maila\Downloads\mgr\NEW_model_var1_hitrmd

> <s_m_Source_File>
wzakresie-VAR1-NEW-hitrmd.maegz

> <i_m_Source_File_Index>
22

> <s_user_SMILES>
C1C2=[C]13[C]2(C345)=C5C4=C=CC(CC)C(=C6C7)C8([C]6=79)C9=C8

> <s_m_subgroup_title>
wzakresie-VAR1-NEW-hitrmd->NEW-hitrmd-var1_15_lig_gen_fit_add_gna

> <s_m_subgroupid>
wzakresie-VAR1-NEW-hitrmd->NEW-hitrmd-var1_15_lig_gen_fit_add_gna

> <b_m_subgroup_collapsed>
0

$$$$
C1CC2=[C]13[C]2(=[C]345)C=C4C5CC6C(C)C6C7C(=[C]789)C=C8C=C9
                    3D
 Schrodinger Suite 2021-1.
 21 29  0  0  1  0            999 V2000
  -14.7304   41.3210  -10.5766 C   0  0  0  0  0  0
  -14.7190   41.8431   -9.1352 C   0  0  0  0  0  0
  -16.0261   42.5272   -8.7827 C   0  0  0  0  0  0
  -15.6620   41.1940   -8.1219 C   0  0  0  0  0  0
  -18.9498   39.1178   -8.6829 C   0  0  0  0  0  0
  -18.6324   39.9027  -10.0345 C   0  0  0  0  0  0
  -17.5318   39.9608   -9.4551 C   0  0  0  0  0  0
  -17.5819   39.5531   -8.0285 C   0  0  0  0  0  0
  -19.6396   40.1607   -8.0143 C   0  0  0  0  0  0
  -16.3268   39.8945   -8.5946 C   0  0  0  0  0  0
  -18.3727   40.5311   -7.2622 C   0  0  0  0  0  0
  -15.9940   43.7145   -7.8131 C   0  0  0  0  0  0
  -14.9684   46.9174   -9.8101 C   0  0  0  0  0  0
  -15.9225   48.7881   -8.4430 C   0  0  0  0  0  0
  -15.7778   45.7094   -9.4032 C   0  0  0  0  0  0
  -15.8485   46.2527   -7.9409 C   0  0  0  0  0  0
  -17.0022   48.0833   -6.7354 C   0  0  0  0  0  0
  -16.6682   47.5083   -8.1123 C   0  0  0  0  0  0
  -16.2864   49.3664   -7.0893 C   0  0  0  0  0  0
  -15.1327   47.4937   -8.4151 C   0  0  0  0  0  0
  -15.1907   44.9105   -8.3274 C   0  0  0  0  0  0
  1  2  1  0  0  0
  2  3  1  0  0  0
  2  4  1  0  0  0
  3 12  1  0  0  0
  3  4  1  0  0  0
  4 10  1  0  0  0
  5  6  2  0  0  0
  5  8  1  0  0  0
  5  9  1  0  0  0
  6  7  1  0  0  0
  7  8  2  0  0  0
  7 10  1  0  0  0
  8 10  1  0  0  0
  8 11  1  0  0  0
  9 11  2  0  0  0
 12 21  1  0  0  0
 13 15  2  0  0  0
 13 20  1  0  0  0
 14 18  2  0  0  0
 14 19  1  0  0  0
 14 20  1  0  0  0
 15 16  1  0  0  0
 15 21  1  0  0  0
 16 18  1  0  0  0
 16 20  2  0  0  0
 16 21  1  0  0  0
 17 18  1  0  0  0
 17 19  1  0  0  0
 18 20  1  0  0  0
M  END
> <s_m_entry_id>
23

> <s_m_entry_name>
NEW-hitrmd-var1_16_lig_gen_fit_add_gna.sdf.6

> <minimizedAffinity>
-8.20263

> <minimizedRMSD>
1.60101

> <CNNscore>
0.362721473

> <CNNaffinity>
6.0347523689

> <CNN_VS>
2.1889343262

> <CNNaffinity_variance>
0.180741936

> <s_m_Source_Path>
C:\Users\maila\Downloads\mgr\NEW_model_var1_hitrmd

> <s_m_Source_File>
wzakresie-VAR1-NEW-hitrmd.maegz

> <i_m_Source_File_Index>
23

> <s_user_SMILES>
C1CC2=[C]13[C]2(=[C]345)C=C4C5CC6C(C)C6C7C(=[C]789)C=C8C=C9

> <s_m_subgroup_title>
wzakresie-VAR1-NEW-hitrmd->NEW-hitrmd-var1_16_lig_gen_fit_add_gna

> <s_m_subgroupid>
wzakresie-VAR1-NEW-hitrmd->NEW-hitrmd-var1_16_lig_gen_fit_add_gna

> <b_m_subgroup_collapsed>
0

$$$$
C1=C2C(=[C]123)C=C3CC4C(C45)CC5C6[C]7(=[C]89C167)C=C9C=C18
                    3D
 Schrodinger Suite 2021-1.
 20 29  0  0  1  0            999 V2000
  -16.2662   41.7748   -8.4418 C   0  0  0  0  0  0
  -17.5016   40.8564   -8.4367 C   0  0  0  0  0  0
  -15.3908   40.5722   -8.8138 C   0  0  0  0  0  0
  -15.4778   41.7792   -9.7404 C   0  0  0  0  0  0
  -16.5987   39.6771   -8.6629 C   0  0  0  0  0  0
  -20.7714   40.3959   -6.7243 C   0  0  0  0  0  0
  -21.1871   41.3826   -5.6331 C   0  0  0  0  0  0
  -19.7874   41.3255   -7.3971 C   0  0  0  0  0  0
  -20.2004   41.0507   -4.6978 C   0  0  0  0  0  0
  -20.2273   42.3456   -6.3340 C   0  0  0  0  0  0
  -18.7643   42.1057   -6.5370 C   0  0  0  0  0  0
  -19.3498   42.1856   -5.1588 C   0  0  0  0  0  0
  -18.3738   40.7802   -7.1513 C   0  0  0  0  0  0
  -14.1357   42.5355   -9.8197 C   0  0  0  0  0  0
  -15.8208   46.2017   -8.7651 C   0  0  0  0  0  0
  -15.8509   45.7164  -10.1708 C   0  0  0  0  0  0
  -14.3736   46.0088   -9.6313 C   0  0  0  0  0  0
  -15.1703   45.0537   -9.1330 C   0  0  0  0  0  0
  -13.4481   45.0359  -10.2361 C   0  0  0  0  0  0
  -14.2456   44.0311   -9.7573 C   0  0  0  0  0  0
  1  2  1  0  0  0
  1  3  1  0  0  0
  1  4  1  0  0  0
  2 13  1  0  0  0
  2  5  1  0  0  0
  3  4  1  0  0  0
  3  5  1  0  0  0
  4 14  1  0  0  0
  6  7  2  0  0  0
  6  8  1  0  0  0
  7  9  1  0  0  0
  7 10  1  0  0  0
  8 10  2  0  0  0
  8 11  1  0  0  0
  8 13  1  0  0  0
  9 12  2  0  0  0
 10 11  1  0  0  0
 10 12  1  0  0  0
 11 12  1  0  0  0
 11 13  1  0  0  0
 14 20  1  0  0  0
 15 16  2  0  0  0
 15 18  1  0  0  0
 16 17  1  0  0  0
 16 18  1  0  0  0
 17 18  2  0  0  0
 17 19  1  0  0  0
 18 20  1  0  0  0
 19 20  2  0  0  0
M  END
> <s_m_entry_id>
24

> <s_m_entry_name>
NEW-hitrmd-var1_17_lig_gen_fit_add_gna.sdf.8

> <minimizedAffinity>
-8.63579

> <minimizedRMSD>
0.40081

> <CNNscore>
0.2344867885

> <CNNaffinity>
5.6790881157

> <CNN_VS>
1.3316711187

> <CNNaffinity_variance>
0.1283661425

> <s_m_Source_Path>
C:\Users\maila\Downloads\mgr\NEW_model_var1_hitrmd

> <s_m_Source_File>
wzakresie-VAR1-NEW-hitrmd.maegz

> <i_m_Source_File_Index>
24

> <s_user_SMILES>
C1=C2C(=[C]123)C=C3CC4C(C45)CC5C6[C]7(=[C]89C167)C=C9C=C18

> <s_m_subgroup_title>
wzakresie-VAR1-NEW-hitrmd->NEW-hitrmd-var1_17_lig_gen_fit_add_gna

> <s_m_subgroupid>
wzakresie-VAR1-NEW-hitrmd->NEW-hitrmd-var1_17_lig_gen_fit_add_gna

> <b_m_subgroup_collapsed>
0

$$$$
CC1C=C2[C]=1([C]234)C=3C4C5(C67)C78C6(C589)C19C2(C1)C1=C2[C]23=C1C2=C3
                    3D
 Schrodinger Suite 2021-1.
 22 35  0  0  1  0            999 V2000
  -14.6588   46.7686   -9.0911 C   0  0  0  0  0  0
  -15.6908   46.4205  -10.1223 C   0  0  0  0  0  0
  -14.4215   45.3676  -10.2507 C   0  0  0  0  0  0
  -16.3129   40.4668  -11.1018 C   0  0  0  0  0  0
  -14.9435   45.4878   -9.3638 C   0  0  0  0  0  0
  -15.0453   41.4797   -9.5772 C   0  0  0  0  0  0
  -14.0654   44.1266   -9.2048 C   0  0  0  0  0  0
  -15.3019   40.1566  -10.0783 C   0  0  0  0  0  0
  -16.5098   40.8884   -9.6201 C   0  0  0  0  0  0
  -15.6883   44.3154   -9.1175 C   0  0  0  0  0  0
  -15.8109   43.2383  -11.2944 C   0  0  0  0  0  0
  -14.8983   44.0656  -10.3554 C   0  0  0  0  0  0
  -14.6663   42.5021  -10.6857 C   0  0  0  0  0  0
  -14.8510   41.0487  -11.1121 C   0  0  0  0  0  0
  -21.4320   41.0676   -6.6359 C   0  0  0  0  0  0
  -19.1346   41.6989   -5.8218 C   0  0  0  0  0  0
  -18.0951   41.6138   -6.9509 C   0  0  0  0  0  0
  -19.9904   40.6515   -6.5215 C   0  0  0  0  0  0
  -18.5760   39.7453   -8.6002 C   0  0  0  0  0  0
  -17.8029   40.1749   -7.3760 C   0  0  0  0  0  0
  -19.1237   40.8571   -7.7448 C   0  0  0  0  0  0
  -17.0556   39.8230   -8.6538 C   0  0  0  0  0  0
  1  2  2  0  0  0
  1  5  1  0  0  0
  2  3  1  0  0  0
  2  5  1  0  0  0
  3  5  2  0  0  0
  3  7  1  0  0  0
  4  8  1  0  0  0
  4  9  1  0  0  0
  4 14  1  0  0  0
  5 10  1  0  0  0
  6  8  1  0  0  0
  6  9  1  0  0  0
  6 13  1  0  0  0
  6 14  1  0  0  0
  7 10  2  0  0  0
  7 12  1  0  0  0
  8  9  1  0  0  0
  8 14  1  0  0  0
  9 22  1  0  0  0
 10 12  1  0  0  0
 11 12  1  0  0  0
 11 13  1  0  0  0
 12 13  1  0  0  0
 13 14  1  0  0  0
 15 18  1  0  0  0
 16 17  2  0  0  0
 16 18  1  0  0  0
 17 20  1  0  0  0
 17 21  1  0  0  0
 18 21  2  0  0  0
 19 20  2  0  0  0
 19 21  1  0  0  0
 19 22  1  0  0  0
 20 21  1  0  0  0
 20 22  1  0  0  0
M  END
> <s_m_entry_id>
25

> <s_m_entry_name>
NEW-hitrmd-var1_17_lig_gen_fit_add_gna.sdf.9

> <minimizedAffinity>
-9.9993

> <minimizedRMSD>
0.70233

> <CNNscore>
0.2672297657

> <CNNaffinity>
6.0149698257

> <CNN_VS>
1.6073789597

> <CNNaffinity_variance>
0.0151886251

> <s_m_Source_Path>
C:\Users\maila\Downloads\mgr\NEW_model_var1_hitrmd

> <s_m_Source_File>
wzakresie-VAR1-NEW-hitrmd.maegz

> <i_m_Source_File_Index>
25

> <s_user_SMILES>
CC1C=C2[C]=1([C]234)C=3C4C5(C67)C78C6(C589)C19C2(C1)C1=C2[C]23=C1C2=C3

> <s_m_subgroup_title>
wzakresie-VAR1-NEW-hitrmd->NEW-hitrmd-var1_17_lig_gen_fit_add_gna

> <s_m_subgroupid>
wzakresie-VAR1-NEW-hitrmd->NEW-hitrmd-var1_17_lig_gen_fit_add_gna

> <b_m_subgroup_collapsed>
0

$$$$
C1[C]2(=C3)[C]3([C]=124)=C4CC5C6(C578)C7(C68)C9[C]1(=[C]2([C]1=39)C3)C2C
                    3D
 Schrodinger Suite 2021-1.
 19 30  0  0  1  0            999 V2000
  -16.3403   39.4733  -10.1356 C   0  0  0  0  0  0
  -15.0482   41.5065   -9.5170 C   0  0  0  0  0  0
  -15.8276   40.3341   -8.9787 C   0  0  0  0  0  0
  -16.2077   40.9374  -10.2991 C   0  0  0  0  0  0
  -17.2892   40.3858   -9.3266 C   0  0  0  0  0  0
  -19.5020   39.3624   -8.3669 C   0  0  0  0  0  0
  -19.7778   40.7112   -7.7875 C   0  0  0  0  0  0
  -20.8884   39.7158   -7.7644 C   0  0  0  0  0  0
  -18.6498   39.7895   -7.1907 C   0  0  0  0  0  0
  -19.0740   41.0609   -6.5154 C   0  0  0  0  0  0
  -17.9428   39.3483   -8.4106 C   0  0  0  0  0  0
  -18.0125   42.1481   -6.5455 C   0  0  0  0  0  0
  -15.3309   42.8197   -8.7881 C   0  0  0  0  0  0
  -13.4431   45.7187  -10.4768 C   0  0  0  0  0  0
  -15.1520   43.9984   -9.7400 C   0  0  0  0  0  0
  -15.4986   45.3493   -9.1292 C   0  0  0  0  0  0
  -14.4757   46.3813   -9.5769 C   0  0  0  0  0  0
  -15.8730   46.3843  -10.1779 C   0  0  0  0  0  0
  -14.0420   44.9481   -9.3119 C   0  0  0  0  0  0
  1  3  1  0  0  0
  1  4  1  0  0  0
  1  5  1  0  0  0
  2  3  1  0  0  0
  2  4  1  0  0  0
  2 13  1  0  0  0
  3  4  1  0  0  0
  3  5  1  0  0  0
  4  5  1  0  0  0
  5 11  1  0  0  0
  6  7  1  0  0  0
  6  8  2  0  0  0
  6  9  1  0  0  0
  6 11  1  0  0  0
  7  8  1  0  0  0
  7  9  2  0  0  0
  7 10  1  0  0  0
  9 10  1  0  0  0
  9 11  1  0  0  0
 10 12  1  0  0  0
 13 15  1  0  0  0
 14 17  2  0  0  0
 14 19  1  0  0  0
 15 16  1  0  0  0
 15 19  2  0  0  0
 16 17  1  0  0  0
 16 18  2  0  0  0
 16 19  1  0  0  0
 17 18  1  0  0  0
 17 19  1  0  0  0
M  END
> <s_m_entry_id>
26

> <s_m_entry_name>
NEW-hitrmd-var1_17_lig_gen_fit_add_gna.sdf.10

> <minimizedAffinity>
-8.49983

> <minimizedRMSD>
1.44897

> <CNNscore>
0.2777294517

> <CNNaffinity>
5.7014198303

> <CNN_VS>
1.5834522247

> <CNNaffinity_variance>
0.0948763639

> <s_m_Source_Path>
C:\Users\maila\Downloads\mgr\NEW_model_var1_hitrmd

> <s_m_Source_File>
wzakresie-VAR1-NEW-hitrmd.maegz

> <i_m_Source_File_Index>
26

> <s_user_SMILES>
C1[C]2(=C3)[C]3([C]=124)=C4CC5C6(C578)C7(C68)C9[C]1(=[C]2([C]1=39)C3)C2C

> <s_m_subgroup_title>
wzakresie-VAR1-NEW-hitrmd->NEW-hitrmd-var1_17_lig_gen_fit_add_gna

> <s_m_subgroupid>
wzakresie-VAR1-NEW-hitrmd->NEW-hitrmd-var1_17_lig_gen_fit_add_gna

> <b_m_subgroup_collapsed>
0

$$$$
C1C[C]12=C3C4=[C]5(C234)C67[C]89=[C]12[C]3(=C2C3)C1=C8C69C57
                    3D
 Schrodinger Suite 2021-1.
 17 28  0  0  1  0            999 V2000
  -18.7668   41.2751   -8.0659 C   0  0  0  0  0  0
  -19.1193   40.4511  -13.0724 C   0  0  0  0  0  0
  -20.2248   41.5578   -8.2828 C   0  0  0  0  0  0
  -19.3076   41.9388  -13.1736 C   0  0  0  0  0  0
  -17.3861   40.3529   -9.9519 C   0  0  0  0  0  0
  -17.9476   41.3349  -13.2946 C   0  0  0  0  0  0
  -21.2686   41.0950   -7.3168 C   0  0  0  0  0  0
  -19.5632   40.2879   -8.8663 C   0  0  0  0  0  0
  -17.9594   41.5956   -9.3290 C   0  0  0  0  0  0
  -21.0648   40.3806   -8.6651 C   0  0  0  0  0  0
  -18.3271   44.0614  -13.2105 C   0  0  0  0  0  0
  -18.1038   42.6751  -12.5517 C   0  0  0  0  0  0
  -16.9900   43.4577  -13.2920 C   0  0  0  0  0  0
  -18.1587   39.7039  -11.0126 C   0  0  0  0  0  0
  -17.7665   40.0184  -12.4848 C   0  0  0  0  0  0
  -16.8470   40.4560  -11.3459 C   0  0  0  0  0  0
  -18.8833   40.7271  -10.1389 C   0  0  0  0  0  0
  1  3  1  0  0  0
  1  8  1  0  0  0
  1  9  2  0  0  0
  2  4  1  0  0  0
  2  6  1  0  0  0
  2 15  2  0  0  0
  3  7  1  0  0  0
  3  8  1  0  0  0
  3 10  2  0  0  0
  4  6  1  0  0  0
  4 12  2  0  0  0
  5  9  1  0  0  0
  5 14  1  0  0  0
  5 16  1  0  0  0
  5 17  1  0  0  0
  6 12  1  0  0  0
  6 15  1  0  0  0
  7 10  1  0  0  0
  8 10  1  0  0  0
  8 17  2  0  0  0
  9 17  1  0  0  0
 11 12  1  0  0  0
 11 13  1  0  0  0
 12 13  1  0  0  0
 14 15  1  0  0  0
 14 16  1  0  0  0
 14 17  1  0  0  0
 15 16  1  0  0  0
M  END
> <s_m_entry_id>
27

> <s_m_entry_name>
NEW-hitrmd-var1_19_lig_gen_fit_add_gna.sdf.5

> <minimizedAffinity>
-8.56102

> <minimizedRMSD>
0.58365

> <CNNscore>
0.4739681184

> <CNNaffinity>
5.8361382484

> <CNN_VS>
2.7661435604

> <CNNaffinity_variance>
0.1585536748

> <s_m_Source_Path>
C:\Users\maila\Downloads\mgr\NEW_model_var1_hitrmd

> <s_m_Source_File>
wzakresie-VAR1-NEW-hitrmd.maegz

> <i_m_Source_File_Index>
27

> <s_user_SMILES>
C1C[C]12=C3C4=[C]5(C234)C67[C]89=[C]12[C]3(=C2C3)C1=C8C69C57

> <s_m_subgroup_title>
wzakresie-VAR1-NEW-hitrmd->NEW-hitrmd-var1_19_lig_gen_fit_add_gna

> <s_m_subgroupid>
wzakresie-VAR1-NEW-hitrmd->NEW-hitrmd-var1_19_lig_gen_fit_add_gna

> <b_m_subgroup_collapsed>
0

$$$$
C1C2[C]=13[C]=24[C]3(C456)=C5C67C89[C]1(C79)=[C]23C(=C18)C2CC3
                    3D
 Schrodinger Suite 2021-1.
 17 28  0  0  1  0            999 V2000
  -19.2647   40.4185  -11.6475 C   0  0  0  0  0  0
  -21.0318   41.8943   -6.3761 C   0  0  0  0  0  0
  -17.9233   42.0231  -11.7909 C   0  0  0  0  0  0
  -21.9799   42.8540   -6.6330 C   0  0  0  0  0  0
  -19.1135   41.6098  -12.6256 C   0  0  0  0  0  0
  -19.9319   41.6967   -7.3829 C   0  0  0  0  0  0
  -17.2209   43.2881  -13.3071 C   0  0  0  0  0  0
  -21.2854   41.8215   -7.7606 C   0  0  0  0  0  0
  -19.3200   40.3356   -7.5589 C   0  0  0  0  0  0
  -17.9841   40.7929  -10.9602 C   0  0  0  0  0  0
  -19.3430   39.9799   -9.0598 C   0  0  0  0  0  0
  -22.3336   41.4010   -6.6425 C   0  0  0  0  0  0
  -17.3575   43.4170  -11.7987 C   0  0  0  0  0  0
  -18.0576   40.7681   -9.4546 C   0  0  0  0  0  0
  -19.3068   40.9447  -10.2223 C   0  0  0  0  0  0
  -20.5559   40.5684   -8.2771 C   0  0  0  0  0  0
  -17.7368   41.8423  -13.2690 C   0  0  0  0  0  0
  1  5  2  0  0  0
  1 10  1  0  0  0
  1 15  1  0  0  0
  2  4  2  0  0  0
  2  6  1  0  0  0
  2  8  1  0  0  0
  2 12  1  0  0  0
  3  5  1  0  0  0
  3 10  2  0  0  0
  3 13  1  0  0  0
  3 17  1  0  0  0
  4 12  1  0  0  0
  5 17  1  0  0  0
  6  8  1  0  0  0
  6  9  2  0  0  0
  6 16  1  0  0  0
  7 13  1  0  0  0
  7 17  1  0  0  0
  8 12  2  0  0  0
  8 16  1  0  0  0
  9 11  1  0  0  0
  9 16  1  0  0  0
 10 14  1  0  0  0
 10 15  1  0  0  0
 11 14  1  0  0  0
 11 15  1  0  0  0
 11 16  1  0  0  0
 14 15  1  0  0  0
M  END
> <s_m_entry_id>
28

> <s_m_entry_name>
NEW-hitrmd-var1_19_lig_gen_fit_add_gna.sdf.8

> <minimizedAffinity>
-9.53129

> <minimizedRMSD>
0.55794

> <CNNscore>
0.6664969325

> <CNNaffinity>
5.511824131

> <CNN_VS>
3.6736137867

> <CNNaffinity_variance>
0.6653475165

> <s_m_Source_Path>
C:\Users\maila\Downloads\mgr\NEW_model_var1_hitrmd

> <s_m_Source_File>
wzakresie-VAR1-NEW-hitrmd.maegz

> <i_m_Source_File_Index>
28

> <s_user_SMILES>
C1C2[C]=13[C]=24[C]3(C456)=C5C67C89[C]1(C79)=[C]23C(=C18)C2CC3

> <s_m_subgroup_title>
wzakresie-VAR1-NEW-hitrmd->NEW-hitrmd-var1_19_lig_gen_fit_add_gna

> <s_m_subgroupid>
wzakresie-VAR1-NEW-hitrmd->NEW-hitrmd-var1_19_lig_gen_fit_add_gna

> <b_m_subgroup_collapsed>
0

$$$$
C1C2[C]=1([C]=234)[C]45=C3C5CC6(C78)C79C8C12[C]3([C]45=[C]23C169)=[C]15C4=C1
                    3D
 Schrodinger Suite 2021-1.
 20 34  0  0  1  0            999 V2000
  -19.2637   40.5546   -7.5877 C   0  0  0  0  0  0
  -19.3118   41.3043   -8.9485 C   0  0  0  0  0  0
  -19.8769   40.2717   -9.9198 C   0  0  0  0  0  0
  -18.5113   41.0129  -13.4759 C   0  0  0  0  0  0
  -20.3682   40.5829   -8.4887 C   0  0  0  0  0  0
  -19.0732   40.1232  -12.3671 C   0  0  0  0  0  0
  -20.2274   41.6870   -7.6577 C   0  0  0  0  0  0
  -18.0274   42.2004  -12.6631 C   0  0  0  0  0  0
  -19.5712   40.9929  -11.2112 C   0  0  0  0  0  0
  -18.5222   40.7502  -10.1035 C   0  0  0  0  0  0
  -17.7466   40.8431  -12.2230 C   0  0  0  0  0  0
  -18.2957   41.8091  -11.1749 C   0  0  0  0  0  0
  -16.6646   42.8280  -12.9847 C   0  0  0  0  0  0
  -17.8660   44.8746  -12.0671 C   0  0  0  0  0  0
  -18.6881   47.1411  -11.3421 C   0  0  0  0  0  0
  -18.3151   46.2921  -12.3609 C   0  0  0  0  0  0
  -17.4259   47.3685  -12.1137 C   0  0  0  0  0  0
  -17.4578   46.0188  -11.2815 C   0  0  0  0  0  0
  -16.8020   44.3495  -13.0037 C   0  0  0  0  0  0
  -16.3748   45.0200  -11.7151 C   0  0  0  0  0  0
  1  2  1  0  0  0
  1  5  1  0  0  0
  1  7  2  0  0  0
  2  3  1  0  0  0
  2  5  1  0  0  0
  2 10  2  0  0  0
  3  5  2  0  0  0
  3  9  1  0  0  0
  3 10  1  0  0  0
  4  6  1  0  0  0
  4  8  1  0  0  0
  4 11  1  0  0  0
  5  7  1  0  0  0
  6  9  1  0  0  0
  6 11  1  0  0  0
  8 13  1  0  0  0
  8 11  1  0  0  0
  8 12  1  0  0  0
  9 10  1  0  0  0
  9 12  1  0  0  0
 10 12  1  0  0  0
 11 12  1  0  0  0
 13 19  1  0  0  0
 14 16  1  0  0  0
 14 18  1  0  0  0
 14 19  1  0  0  0
 14 20  2  0  0  0
 15 16  2  0  0  0
 15 17  1  0  0  0
 16 17  1  0  0  0
 16 18  1  0  0  0
 17 18  2  0  0  0
 18 20  1  0  0  0
 19 20  1  0  0  0
M  END
> <s_m_entry_id>
29

> <s_m_entry_name>
NEW-hitrmd-var1_27_lig_gen_fit_add_gna.sdf.2

> <minimizedAffinity>
-8.43729

> <minimizedRMSD>
0.78552

> <CNNscore>
0.2790307999

> <CNNaffinity>
5.5659985542

> <CNN_VS>
1.5530849695

> <CNNaffinity_variance>
0.1888965219

> <s_m_Source_Path>
C:\Users\maila\Downloads\mgr\NEW_model_var1_hitrmd

> <s_m_Source_File>
wzakresie-VAR1-NEW-hitrmd.maegz

> <i_m_Source_File_Index>
29

> <s_user_SMILES>
C1C2[C]=1([C]=234)[C]45=C3C5CC6(C78)C79C8C12[C]3([C]45=[C]23C169)=[C]15C4=C1

> <s_m_subgroup_title>
wzakresie-VAR1-NEW-hitrmd->NEW-hitrmd-var1_27_lig_gen_fit_add_gna

> <s_m_subgroupid>
wzakresie-VAR1-NEW-hitrmd->NEW-hitrmd-var1_27_lig_gen_fit_add_gna

> <b_m_subgroup_collapsed>
0

$$$$
C1=C2[C]1(=[C]234)[C]45=C3C5CC67C8(C6C78)C9C1=[C]29[C]3(=[C]124)C4=C3
                    3D
 Schrodinger Suite 2021-1.
 19 31  0  0  1  0            999 V2000
  -18.9001   39.8385  -11.1021 C   0  0  0  0  0  0
  -19.6116   40.6576  -10.1217 C   0  0  0  0  0  0
  -18.0143   40.3276  -10.0815 C   0  0  0  0  0  0
  -18.6035   41.4206  -10.8526 C   0  0  0  0  0  0
  -21.4518   42.6755   -6.1289 C   0  0  0  0  0  0
  -22.7818   42.3687   -6.7568 C   0  0  0  0  0  0
  -21.7295   41.2726   -6.7320 C   0  0  0  0  0  0
  -20.3669   41.7731   -6.6391 C   0  0  0  0  0  0
  -20.9350   41.2882   -8.0253 C   0  0  0  0  0  0
  -19.7389   40.5865   -8.5985 C   0  0  0  0  0  0
  -19.6162   41.9710   -7.9336 C   0  0  0  0  0  0
  -18.4491   41.7879  -12.3394 C   0  0  0  0  0  0
  -15.3764   44.7854  -12.0421 C   0  0  0  0  0  0
  -16.7580   44.6374  -12.9597 C   0  0  0  0  0  0
  -15.5982   43.5564  -12.8650 C   0  0  0  0  0  0
  -16.4315   43.9378  -11.7861 C   0  0  0  0  0  0
  -17.8653   44.3533  -12.0695 C   0  0  0  0  0  0
  -18.8251   43.2740  -12.5547 C   0  0  0  0  0  0
  -18.0492   44.0833  -13.5772 C   0  0  0  0  0  0
  1  2  1  0  0  0
  1  3  1  0  0  0
  1  4  1  0  0  0
  2 10  1  0  0  0
  2  3  1  0  0  0
  2  4  1  0  0  0
  3  4  1  0  0  0
  4 12  1  0  0  0
  5  6  2  0  0  0
  5  7  1  0  0  0
  5  8  1  0  0  0
  6  7  1  0  0  0
  7  8  2  0  0  0
  7  9  1  0  0  0
  8  9  1  0  0  0
  8 11  1  0  0  0
  9 10  1  0  0  0
  9 11  2  0  0  0
 10 11  1  0  0  0
 12 18  1  0  0  0
 13 15  2  0  0  0
 13 16  1  0  0  0
 14 15  1  0  0  0
 14 16  2  0  0  0
 14 17  1  0  0  0
 14 19  1  0  0  0
 15 16  1  0  0  0
 16 17  1  0  0  0
 17 18  1  0  0  0
 17 19  2  0  0  0
 18 19  1  0  0  0
M  END
> <s_m_entry_id>
30

> <s_m_entry_name>
NEW-hitrmd-var1_27_lig_gen_fit_add_gna.sdf.6

> <minimizedAffinity>
-8.09942

> <minimizedRMSD>
0.67586

> <CNNscore>
0.46175161

> <CNNaffinity>
5.6370902061

> <CNN_VS>
2.6029355526

> <CNNaffinity_variance>
0.2319942415

> <s_m_Source_Path>
C:\Users\maila\Downloads\mgr\NEW_model_var1_hitrmd

> <s_m_Source_File>
wzakresie-VAR1-NEW-hitrmd.maegz

> <i_m_Source_File_Index>
30

> <s_user_SMILES>
C1=C2[C]1(=[C]234)[C]45=C3C5CC67C8(C6C78)C9C1=[C]29[C]3(=[C]124)C4=C3

> <s_m_subgroup_title>
wzakresie-VAR1-NEW-hitrmd->NEW-hitrmd-var1_27_lig_gen_fit_add_gna

> <s_m_subgroupid>
wzakresie-VAR1-NEW-hitrmd->NEW-hitrmd-var1_27_lig_gen_fit_add_gna

> <b_m_subgroup_collapsed>
0

$$$$
C1C2C(C123)C3CCCC4C=5C=6[C]7([C]8=9[C]45[C]678)=CC9
                    3D
 Schrodinger Suite 2021-1.
 17 25  0  0  1  0            999 V2000
  -34.4368    9.9858   -4.6749 C   0  0  0  0  0  0
  -34.3865    9.6233   -6.2228 C   0  0  0  0  0  0
  -33.0929    9.1440   -6.4870 C   0  0  0  0  0  0
  -33.5630    8.8521   -4.0550 C   0  0  0  0  0  0
  -32.9925   10.0195   -7.6781 C   0  0  0  0  0  0
  -32.4664    9.0987   -5.0784 C   0  0  0  0  0  0
  -33.8665   10.0169   -3.2310 C   0  0  0  0  0  0
  -33.2575   10.2535   -5.5235 C   0  0  0  0  0  0
  -34.3197   10.4525   -7.4589 C   0  0  0  0  0  0
  -34.8571    9.6935   -2.1200 C   0  0  0  0  0  0
  -34.1723    9.4602   -0.7539 C   0  0  0  0  0  0
  -33.8339    7.9930   -0.4284 C   0  0  0  0  0  0
  -32.8974    5.5249   -1.9760 C   0  0  0  0  0  0
  -33.9065    4.6733   -1.2341 C   0  0  0  0  0  0
  -34.9038    5.5657   -0.5301 C   0  0  0  0  0  0
  -34.3719    5.9050   -1.9487 C   0  0  0  0  0  0
  -34.8743    7.0058   -1.0280 C   0  0  0  0  0  0
  1  2  1  0  0  0
  1  4  2  0  0  0
  1  7  1  0  0  0
  1  8  1  0  0  0
  2  3  1  0  0  0
  2  8  1  0  0  0
  2  9  2  0  0  0
  3  5  2  0  0  0
  3  6  1  0  0  0
  3  8  1  0  0  0
  4  6  1  0  0  0
  4  7  1  0  0  0
  5  9  1  0  0  0
  6  8  2  0  0  0
  7 10  1  0  0  0
 10 11  1  0  0  0
 11 12  1  0  0  0
 12 17  1  0  0  0
 13 14  1  0  0  0
 13 16  1  0  0  0
 14 15  1  0  0  0
 14 16  1  0  0  0
 15 16  1  0  0  0
 15 17  1  0  0  0
 16 17  1  0  0  0
M  END
> <s_m_entry_id>
31

> <s_m_entry_name>
NEW-hitrmd-var1_41_lig_gen_fit_add_gna.sdf.4

> <minimizedAffinity>
-8.00988

> <minimizedRMSD>
1.15324

> <CNNscore>
0.285487473

> <CNNaffinity>
5.8135595322

> <CNN_VS>
1.6596983671

> <CNNaffinity_variance>
0.161787346

> <s_m_Source_Path>
C:\Users\maila\Downloads\mgr\NEW_model_var1_hitrmd

> <s_m_Source_File>
wzakresie-VAR1-NEW-hitrmd.maegz

> <i_m_Source_File_Index>
31

> <s_user_SMILES>
C1C2C(C123)C3CCCC4C=5C=6[C]7([C]8=9[C]45[C]678)=CC9

> <s_m_subgroup_title>
wzakresie-VAR1-NEW-hitrmd->NEW-hitrmd-var1_41_lig_gen_fit_add_gna

> <s_m_subgroupid>
wzakresie-VAR1-NEW-hitrmd->NEW-hitrmd-var1_41_lig_gen_fit_add_gna

> <b_m_subgroup_collapsed>
0

$$$$
C123C4(C3)C1(C24)CCC(C)(C)CC5C6[C]5(C=6C789)=C7C8=C9
                    3D
 Schrodinger Suite 2021-1.
 19 27  0  0  1  0            999 V2000
  -33.8637    8.5068   -0.7452 C   0  0  0  0  0  0
  -36.1965    8.0020   -0.3706 C   0  0  0  0  0  0
  -35.0626    7.7122   -1.3682 C   0  0  0  0  0  0
  -34.6258    6.1495   -1.6171 C   0  0  0  0  0  0
  -34.5781    4.4309   -1.0801 C   0  0  0  0  0  0
  -38.6508    3.3612   -1.7493 C   0  0  0  0  0  0
  -36.1410    4.2115   -1.7798 C   0  0  0  0  0  0
  -36.4306    2.6544   -1.4395 C   0  0  0  0  0  0
  -37.4008    3.7137   -0.9928 C   0  0  0  0  0  0
  -37.2510    3.2926   -2.3985 C   0  0  0  0  0  0
  -35.4492    8.4566   -2.7482 C   0  0  0  0  0  0
  -33.1178   10.3771   -5.1028 C   0  0  0  0  0  0
  -33.9490    9.1400   -6.9041 C   0  0  0  0  0  0
  -33.8418   10.4714   -6.4603 C   0  0  0  0  0  0
  -34.6018   10.2609   -7.5840 C   0  0  0  0  0  0
  -33.4090    9.2113   -4.1548 C   0  0  0  0  0  0
  -34.4600   10.2632   -4.4989 C   0  0  0  0  0  0
  -34.4569    9.5672   -3.1461 C   0  0  0  0  0  0
  -35.0081    9.9608   -5.8879 C   0  0  0  0  0  0
  1  3  1  0  0  0
  2  3  1  0  0  0
  3  4  1  0  0  0
  3 11  1  0  0  0
  4  5  1  0  0  0
  5  7  1  0  0  0
  6  9  1  0  0  0
  6 10  1  0  0  0
  7  8  1  0  0  0
  7  9  1  0  0  0
  7 10  1  0  0  0
  8  9  1  0  0  0
  8 10  1  0  0  0
  9 10  1  0  0  0
 11 18  1  0  0  0
 12 14  1  0  0  0
 12 16  2  0  0  0
 12 17  1  0  0  0
 13 14  1  0  0  0
 13 15  2  0  0  0
 13 19  1  0  0  0
 14 15  1  0  0  0
 14 19  1  0  0  0
 16 17  1  0  0  0
 16 18  1  0  0  0
 17 18  1  0  0  0
 17 19  2  0  0  0
M  END
> <s_m_entry_id>
32

> <s_m_entry_name>
NEW-hitrmd-var1_41_lig_gen_fit_add_gna.sdf.5

> <minimizedAffinity>
-9.1136

> <minimizedRMSD>
3.07251

> <CNNscore>
0.2750166655

> <CNNaffinity>
6.0941100121

> <CNN_VS>
1.67598176

> <CNNaffinity_variance>
0.1846443415

> <s_m_Source_Path>
C:\Users\maila\Downloads\mgr\NEW_model_var1_hitrmd

> <s_m_Source_File>
wzakresie-VAR1-NEW-hitrmd.maegz

> <i_m_Source_File_Index>
32

> <s_user_SMILES>
C123C4(C3)C1(C24)CCC(C)(C)CC5C6[C]5(C=6C789)=C7C8=C9

> <s_m_subgroup_title>
wzakresie-VAR1-NEW-hitrmd->NEW-hitrmd-var1_41_lig_gen_fit_add_gna

> <s_m_subgroupid>
wzakresie-VAR1-NEW-hitrmd->NEW-hitrmd-var1_41_lig_gen_fit_add_gna

> <b_m_subgroup_collapsed>
0

$$$$
C12C(C2)C1CC(C3)(C4C56)C34C6C57[C]8([C]79=[C]128)=C1[C]12=[C]29C1=C2
                    3D
 Schrodinger Suite 2021-1.
 20 32  0  0  1  0            999 V2000
  -33.6423   10.0638   -7.4077 C   0  0  0  0  0  0
  -35.1569   10.6692   -7.7776 C   0  0  0  0  0  0
  -35.0452    9.3424   -7.1224 C   0  0  0  0  0  0
  -34.6260   10.5298   -6.5168 C   0  0  0  0  0  0
  -32.7409    8.9794   -6.7804 C   0  0  0  0  0  0
  -34.5624    9.4363   -1.9436 C   0  0  0  0  0  0
  -34.7810    8.0631   -2.5068 C   0  0  0  0  0  0
  -32.6263    9.3950   -5.3198 C   0  0  0  0  0  0
  -33.6420    8.2952   -3.4886 C   0  0  0  0  0  0
  -33.5750   10.6106   -5.3399 C   0  0  0  0  0  0
  -32.5716   10.3844   -6.3786 C   0  0  0  0  0  0
  -34.0717    9.5081   -0.5220 C   0  0  0  0  0  0
  -33.4737    9.6942   -2.9940 C   0  0  0  0  0  0
  -33.8997    9.4080   -4.4629 C   0  0  0  0  0  0
  -34.4322    8.1324   -1.0394 C   0  0  0  0  0  0
  -33.2044    7.2158   -0.7942 C   0  0  0  0  0  0
  -34.6941    3.7780   -1.1121 C   0  0  0  0  0  0
  -33.6559    5.8786   -0.1651 C   0  0  0  0  0  0
  -33.4763    4.6441   -1.0070 C   0  0  0  0  0  0
  -34.8945    5.2341   -0.7646 C   0  0  0  0  0  0
  1  3  1  0  0  0
  1  4  2  0  0  0
  1  5  1  0  0  0
  1 11  1  0  0  0
  2  3  2  0  0  0
  2  4  1  0  0  0
  3  4  1  0  0  0
  4 10  1  0  0  0
  5  8  2  0  0  0
  5 11  1  0  0  0
  6  7  1  0  0  0
  6 12  1  0  0  0
  6 13  1  0  0  0
  6 15  1  0  0  0
  7  9  1  0  0  0
  7 15  1  0  0  0
  8 10  1  0  0  0
  8 11  1  0  0  0
  8 14  1  0  0  0
  9 13  1  0  0  0
  9 14  1  0  0  0
 10 11  2  0  0  0
 10 14  1  0  0  0
 12 15  1  0  0  0
 13 14  1  0  0  0
 15 16  1  0  0  0
 16 18  1  0  0  0
 17 19  1  0  0  0
 17 20  1  0  0  0
 18 19  1  0  0  0
 18 20  1  0  0  0
 19 20  1  0  0  0
M  END
> <s_m_entry_id>
33

> <s_m_entry_name>
NEW-hitrmd-var1_41_lig_gen_fit_add_gna.sdf.8

> <minimizedAffinity>
-8.38606

> <minimizedRMSD>
1.19807

> <CNNscore>
0.3681270778

> <CNNaffinity>
6.0774855614

> <CNN_VS>
2.2372870445

> <CNNaffinity_variance>
0.2524670064

> <s_m_Source_Path>
C:\Users\maila\Downloads\mgr\NEW_model_var1_hitrmd

> <s_m_Source_File>
wzakresie-VAR1-NEW-hitrmd.maegz

> <i_m_Source_File_Index>
33

> <s_user_SMILES>
C12C(C2)C1CC(C3)(C4C56)C34C6C57[C]8([C]79=[C]128)=C1[C]12=[C]29C1=C2

> <s_m_subgroup_title>
wzakresie-VAR1-NEW-hitrmd->NEW-hitrmd-var1_41_lig_gen_fit_add_gna

> <s_m_subgroupid>
wzakresie-VAR1-NEW-hitrmd->NEW-hitrmd-var1_41_lig_gen_fit_add_gna

> <b_m_subgroup_collapsed>
0

$$$$
C12C(C2)C1CCC3(C4)C45[C]6(C357)=C8[C]19=C8C=C1C9=C67
                    3D
 Schrodinger Suite 2021-1.
 18 27  0  0  1  0            999 V2000
  -32.8766   11.1803   -7.5222 C   0  0  0  0  0  0
  -33.5917    9.0685   -6.8616 C   0  0  0  0  0  0
  -32.5230   10.0777   -7.0328 C   0  0  0  0  0  0
  -34.2465   10.4057   -7.4007 C   0  0  0  0  0  0
  -32.5688    9.1022   -5.8894 C   0  0  0  0  0  0
  -34.4825    8.8425   -2.5586 C   0  0  0  0  0  0
  -33.0642    9.6364   -4.5466 C   0  0  0  0  0  0
  -35.3852    9.4664   -3.6434 C   0  0  0  0  0  0
  -34.4720   10.0645   -4.7264 C   0  0  0  0  0  0
  -34.8177    9.6761   -6.1740 C   0  0  0  0  0  0
  -35.2163   10.1144   -2.2827 C   0  0  0  0  0  0
  -34.1426    8.7364   -4.0120 C   0  0  0  0  0  0
  -35.1173    7.5431   -2.0194 C   0  0  0  0  0  0
  -34.0185    6.4821   -1.8358 C   0  0  0  0  0  0
  -33.5674    4.1270   -1.0079 C   0  0  0  0  0  0
  -33.0641    3.2447   -2.1119 C   0  0  0  0  0  0
  -34.3878    3.9440   -2.3260 C   0  0  0  0  0  0
  -34.6157    5.1310   -1.4037 C   0  0  0  0  0  0
  1  3  2  0  0  0
  1  4  1  0  0  0
  2  3  1  0  0  0
  2  4  2  0  0  0
  2  5  1  0  0  0
  2 10  1  0  0  0
  3  5  1  0  0  0
  4 10  1  0  0  0
  5  7  2  0  0  0
  6  8  1  0  0  0
  6 11  1  0  0  0
  6 12  1  0  0  0
  6 13  1  0  0  0
  7  9  1  0  0  0
  7 12  1  0  0  0
  8  9  1  0  0  0
  8 11  1  0  0  0
  8 12  1  0  0  0
  9 10  2  0  0  0
  9 12  1  0  0  0
 13 14  1  0  0  0
 14 18  1  0  0  0
 15 16  1  0  0  0
 15 17  1  0  0  0
 15 18  1  0  0  0
 16 17  1  0  0  0
 17 18  1  0  0  0
M  END
> <s_m_entry_id>
34

> <s_m_entry_name>
NEW-hitrmd-var1_41_lig_gen_fit_add_gna.sdf.10

> <minimizedAffinity>
-8.15722

> <minimizedRMSD>
0.75841

> <CNNscore>
0.3061276674

> <CNNaffinity>
5.6709961891

> <CNN_VS>
1.7360488176

> <CNNaffinity_variance>
0.2698689103

> <s_m_Source_Path>
C:\Users\maila\Downloads\mgr\NEW_model_var1_hitrmd

> <s_m_Source_File>
wzakresie-VAR1-NEW-hitrmd.maegz

> <i_m_Source_File_Index>
34

> <s_user_SMILES>
C12C(C2)C1CCC3(C4)C45[C]6(C357)=C8[C]19=C8C=C1C9=C67

> <s_m_subgroup_title>
wzakresie-VAR1-NEW-hitrmd->NEW-hitrmd-var1_41_lig_gen_fit_add_gna

> <s_m_subgroupid>
wzakresie-VAR1-NEW-hitrmd->NEW-hitrmd-var1_41_lig_gen_fit_add_gna

> <b_m_subgroup_collapsed>
0

$$$$
CCCC=CC1CC(C1)C(=C2C3=[C]245)C5=CC=C34
                    3D
 Schrodinger Suite 2021-1.
 17 21  0  0  1  0            999 V2000
   26.9831   13.1459   18.6889 C   0  0  0  0  0  0
   27.5421   12.7506   20.0723 C   0  0  0  0  0  0
   28.4120   12.8931   18.1617 C   0  0  0  0  0  0
   28.9699   12.9863   19.5913 C   0  0  0  0  0  0
   27.3461   13.6967   21.9927 C   0  0  0  0  0  0
   24.2222   14.3613   22.7795 C   0  0  0  0  0  0
   25.4099   14.8967   22.8523 C   0  0  0  0  0  0
   24.4270   13.3429   21.7199 C   0  0  0  0  0  0
   26.8708   14.6175   23.1197 C   0  0  0  0  0  0
   26.4904   14.7558   21.8475 C   0  0  0  0  0  0
   25.7049   13.4977   21.3241 C   0  0  0  0  0  0
   26.9956   12.5948   21.5030 C   0  0  0  0  0  0
   29.3735   14.9421   16.8966 C   0  0  0  0  0  0
   29.0678   13.6459   17.0279 C   0  0  0  0  0  0
   28.9749   16.0711   17.8006 C   0  0  0  0  0  0
   29.1385   18.6003   17.7167 C   0  0  0  0  0  0
   29.8539   17.2886   17.4713 C   0  0  0  0  0  0
  1  2  1  0  0  0
  1  3  1  0  0  0
  2 12  1  0  0  0
  2  4  1  0  0  0
  3 14  1  0  0  0
  3  4  1  0  0  0
  5  9  1  0  0  0
  5 10  1  0  0  0
  5 12  2  0  0  0
  6  7  2  0  0  0
  6  8  1  0  0  0
  7  9  1  0  0  0
  7 10  1  0  0  0
  8 11  2  0  0  0
  9 10  2  0  0  0
 10 11  1  0  0  0
 11 12  1  0  0  0
 13 15  1  0  0  0
 13 14  2  0  0  0
 15 17  1  0  0  0
 16 17  1  0  0  0
M  END
> <s_m_entry_id>
35

> <s_m_entry_name>
NEW-hitrmd-var1_45_lig_gen_fit_add_gna.sdf.3

> <minimizedAffinity>
-8.08605

> <minimizedRMSD>
0.36049

> <CNNscore>
0.4887797236

> <CNNaffinity>
5.7198233604

> <CNN_VS>
2.7957336903

> <CNNaffinity_variance>
0.4603100419

> <s_m_Source_Path>
C:\Users\maila\Downloads\mgr\NEW_model_var1_hitrmd

> <s_m_Source_File>
wzakresie-VAR1-NEW-hitrmd.maegz

> <i_m_Source_File_Index>
35

> <s_user_SMILES>
CCCC=CC1CC(C1)C(=C2C3=[C]245)C5=CC=C34

> <s_m_subgroup_title>
wzakresie-VAR1-NEW-hitrmd->NEW-hitrmd-var1_45_lig_gen_fit_add_gna

> <s_m_subgroupid>
wzakresie-VAR1-NEW-hitrmd->NEW-hitrmd-var1_45_lig_gen_fit_add_gna

> <b_m_subgroup_collapsed>
0

$$$$
CCCCC1C2C3C12C3(C4C5=C46)C6=C7C8=C9C5=[C]789
                    3D
 Schrodinger Suite 2021-1.
 18 26  0  0  1  0            999 V2000
   23.8064   13.2824   22.2824 C   0  0  0  0  0  0
   25.7307   15.1141   22.5716 C   0  0  0  0  0  0
   25.1566   13.2040   21.6552 C   0  0  0  0  0  0
   24.9307   14.0025   23.1741 C   0  0  0  0  0  0
   26.4119   12.6572   21.0346 C   0  0  0  0  0  0
   29.3124   13.1517   18.4939 C   0  0  0  0  0  0
   28.0555   12.9513   17.6550 C   0  0  0  0  0  0
   27.4439   13.2255   22.0109 C   0  0  0  0  0  0
   24.5753   14.4017   21.8994 C   0  0  0  0  0  0
   27.2328   14.6819   22.4001 C   0  0  0  0  0  0
   26.8427   13.3353   18.4784 C   0  0  0  0  0  0
   27.0600   13.5391   19.9848 C   0  0  0  0  0  0
   28.0202   12.6627   19.1543 C   0  0  0  0  0  0
   27.8738   14.3220   21.0227 C   0  0  0  0  0  0
   29.9201   14.5890   18.4713 C   0  0  0  0  0  0
   29.3184   15.7057   17.5758 C   0  0  0  0  0  0
   29.2702   18.2290   17.8413 C   0  0  0  0  0  0
   30.1500   16.9926   17.6983 C   0  0  0  0  0  0
  1  3  1  0  0  0
  1  4  2  0  0  0
  1  9  1  0  0  0
  2  4  1  0  0  0
  2  9  2  0  0  0
  2 10  1  0  0  0
  3  5  2  0  0  0
  3  9  1  0  0  0
  4  9  1  0  0  0
  5  8  1  0  0  0
  5 12  1  0  0  0
  6  7  1  0  0  0
  6 15  1  0  0  0
  6 13  1  0  0  0
  7 11  1  0  0  0
  7 13  1  0  0  0
  8 10  2  0  0  0
  8 14  1  0  0  0
 10 14  1  0  0  0
 11 12  1  0  0  0
 11 13  1  0  0  0
 12 13  1  0  0  0
 12 14  1  0  0  0
 15 16  1  0  0  0
 16 18  1  0  0  0
 17 18  1  0  0  0
M  END
> <s_m_entry_id>
36

> <s_m_entry_name>
NEW-hitrmd-var1_45_lig_gen_fit_add_gna.sdf.8

> <minimizedAffinity>
-8.07322

> <minimizedRMSD>
0.63516

> <CNNscore>
0.4124734998

> <CNNaffinity>
5.8566389084

> <CNN_VS>
2.4157083035

> <CNNaffinity_variance>
0.2941954732

> <s_m_Source_Path>
C:\Users\maila\Downloads\mgr\NEW_model_var1_hitrmd

> <s_m_Source_File>
wzakresie-VAR1-NEW-hitrmd.maegz

> <i_m_Source_File_Index>
36

> <s_user_SMILES>
CCCCC1C2C3C12C3(C4C5=C46)C6=C7C8=C9C5=[C]789

> <s_m_subgroup_title>
wzakresie-VAR1-NEW-hitrmd->NEW-hitrmd-var1_45_lig_gen_fit_add_gna

> <s_m_subgroupid>
wzakresie-VAR1-NEW-hitrmd->NEW-hitrmd-var1_45_lig_gen_fit_add_gna

> <b_m_subgroup_collapsed>
0

$$$$
[C@H]12[C@@H](C2)[C@H]1C[C@@H]3[C@H]([C@]345)[C@@H]4C[C@H]5c6cc7ccc8c7c68
                    3D
 Schrodinger Suite 2021-1.
 19 26  0  0  1  0            999 V2000
   29.8540   14.5249   18.5760 C   0  0  1  0  0  0
   29.1420   12.1015   18.2159 C   0  0  2  0  0  0
   29.0665   13.3264   19.0847 C   0  0  2  0  0  0
   29.5274   13.4199   17.5964 C   0  0  1  0  0  0
   27.6384   11.9107   18.3656 C   0  0  0  0  0  0
   27.5404   13.2307   19.1292 C   0  0  1  0  0  0
   26.8578   14.5397   22.6236 C   0  0  0  0  0  0
   25.0960   14.5567   23.2743 C   0  0  0  0  0  0
   24.7377   13.6305   22.0751 C   0  0  0  0  0  0
   27.0484   13.7930   21.5109 C   0  0  0  0  0  0
   26.4352   15.1517   23.6456 C   0  0  0  0  0  0
   25.5135   12.9811   20.8826 C   0  0  0  0  0  0
   25.9218   13.9074   22.0632 C   0  0  0  0  0  0
   26.9916   13.0195   20.5108 C   0  0  0  0  0  0
   29.1327   15.8753   18.4302 C   0  0  0  0  0  0
   29.1132   18.8490   17.1972 C   0  0  0  0  0  0
   29.0622   16.3524   16.9740 C   0  0  2  0  0  0
   29.8356   17.6227   16.7021 C   0  0  1  0  0  0
   28.2998   17.6454   16.7745 C   0  0  2  0  0  0
  1  3  1  0  0  0
  1  4  1  0  0  0
  1 15  1  0  0  0
  2  3  1  0  0  0
  2  4  1  0  0  0
  2  5  1  0  0  0
  3  4  1  0  0  0
  3  6  1  0  0  0
  5  6  1  0  0  0
  6 14  1  0  0  0
  7 10  1  0  0  0
  7 11  2  0  0  0
  7 13  1  0  0  0
  8  9  2  0  0  0
  8 11  1  0  0  0
  9 12  1  0  0  0
  9 13  1  0  0  0
 10 13  2  0  0  0
 10 14  1  0  0  0
 12 14  2  0  0  0
 15 17  1  0  0  0
 16 18  1  0  0  0
 16 19  1  0  0  0
 17 18  1  0  0  0
 17 19  1  0  0  0
 18 19  1  0  0  0
M  END
> <s_m_entry_id>
37

> <s_m_entry_name>
NEW-hitrmd-var1_45_lig_gen_fit_add_gna.sdf.9

> <minimizedAffinity>
-9.82055

> <minimizedRMSD>
0.89502

> <CNNscore>
0.5296746492

> <CNNaffinity>
6.2915639877

> <CNN_VS>
3.3324818611

> <CNNaffinity_variance>
0.1349369138

> <s_m_Source_Path>
C:\Users\maila\Downloads\mgr\NEW_model_var1_hitrmd

> <s_m_Source_File>
wzakresie-VAR1-NEW-hitrmd.maegz

> <i_m_Source_File_Index>
37

> <s_user_SMILES>
[C@H]12[C@@H](C2)[C@H]1C[C@@H]3[C@H]([C@]345)[C@@H]4C[C@H]5c6cc7ccc8c7c68

> <s_m_subgroup_title>
wzakresie-VAR1-NEW-hitrmd->NEW-hitrmd-var1_45_lig_gen_fit_add_gna

> <s_m_subgroupid>
wzakresie-VAR1-NEW-hitrmd->NEW-hitrmd-var1_45_lig_gen_fit_add_gna

> <b_m_subgroup_collapsed>
0

$$$$
C12=C(C3)[C]3([C]24=[C]156)=CC4=C5C6CC7C(C78)C8CC9C1(C239)C2C13
                    3D
 Schrodinger Suite 2021-1.
 21 32  0  0  1  0            999 V2000
   27.6405   12.2333   19.6836 C   0  0  0  0  0  0
   26.2915   14.0238   20.6892 C   0  0  0  0  0  0
   24.1374   13.7931   22.1397 C   0  0  0  0  0  0
   25.3634   13.1595   21.5052 C   0  0  0  0  0  0
   25.0271   14.1477   23.2856 C   0  0  0  0  0  0
   24.9694   15.3453   24.2295 C   0  0  0  0  0  0
   26.9604   14.8803   22.8222 C   0  0  0  0  0  0
   25.6539   15.5192   22.9964 C   0  0  0  0  0  0
   27.6007   13.6335   20.2712 C   0  0  0  0  0  0
   27.3186   13.8659   21.7947 C   0  0  0  0  0  0
   26.2570   13.4262   22.7424 C   0  0  0  0  0  0
   28.0738   14.5075   17.3277 C   0  0  0  0  0  0
   27.6899   12.1547   18.1343 C   0  0  0  0  0  0
   28.6456   13.1008   17.3993 C   0  0  0  0  0  0
   27.1171   13.3530   17.4309 C   0  0  0  0  0  0
   28.0965   15.1913   15.9586 C   0  0  0  0  0  0
   30.0413   17.5374   16.9718 C   0  0  0  0  0  0
   28.5358   17.3458   17.2802 C   0  0  0  0  0  0
   29.0304   17.5946   15.8828 C   0  0  0  0  0  0
   27.8369   16.6975   16.1071 C   0  0  0  0  0  0
   29.0583   18.7025   16.9685 C   0  0  0  0  0  0
  1 13  1  0  0  0
  1  9  1  0  0  0
  2  4  2  0  0  0
  2  9  1  0  0  0
  2 10  1  0  0  0
  3  4  1  0  0  0
  3  5  2  0  0  0
  4 11  1  0  0  0
  5  6  1  0  0  0
  5  8  1  0  0  0
  5 11  1  0  0  0
  6  8  1  0  0  0
  7  8  2  0  0  0
  7 10  1  0  0  0
  7 11  1  0  0  0
  9 10  1  0  0  0
 10 11  2  0  0  0
 12 16  1  0  0  0
 12 14  1  0  0  0
 12 15  1  0  0  0
 13 14  1  0  0  0
 13 15  1  0  0  0
 14 15  1  0  0  0
 16 20  1  0  0  0
 17 18  1  0  0  0
 17 19  1  0  0  0
 17 21  1  0  0  0
 18 19  1  0  0  0
 18 20  1  0  0  0
 18 21  1  0  0  0
 19 20  1  0  0  0
 19 21  1  0  0  0
M  END
> <s_m_entry_id>
38

> <s_m_entry_name>
NEW-hitrmd-var1_45_lig_gen_fit_add_gna.sdf.10

> <minimizedAffinity>
-8.62339

> <minimizedRMSD>
0.8508

> <CNNscore>
0.3101153076

> <CNNaffinity>
6.378780365

> <CNN_VS>
1.9781574011

> <CNNaffinity_variance>
0.1704506576

> <s_m_Source_Path>
C:\Users\maila\Downloads\mgr\NEW_model_var1_hitrmd

> <s_m_Source_File>
wzakresie-VAR1-NEW-hitrmd.maegz

> <i_m_Source_File_Index>
38

> <s_user_SMILES>
C12=C(C3)[C]3([C]24=[C]156)=CC4=C5C6CC7C(C78)C8CC9C1(C239)C2C13

> <s_m_subgroup_title>
wzakresie-VAR1-NEW-hitrmd->NEW-hitrmd-var1_45_lig_gen_fit_add_gna

> <s_m_subgroupid>
wzakresie-VAR1-NEW-hitrmd->NEW-hitrmd-var1_45_lig_gen_fit_add_gna

> <b_m_subgroup_collapsed>
0

$$$$
CC[C@@H]1[C@@H](C2)[C@H]1[C@]2(C345)[C@@H]3[C@@H]4[C@@H]5c(c6c78)c7C=Cc8c6
                    3D
 Schrodinger Suite 2021-1.
 19 26  0  0  1  0            999 V2000
  -36.6995    7.5645   -1.8527 C   0  0  1  0  0  0
  -34.1780    6.8095   -1.8335 C   0  0  0  0  0  0
  -36.9858    9.0434   -1.8779 C   0  0  1  0  0  0
  -34.3212    5.4355   -1.1719 C   0  0  2  0  0  0
  -35.4229    7.2233   -1.1090 C   0  0  1  0  0  0
  -36.0781    8.5364   -0.8002 C   0  0  3  0  0  0
  -35.6570    4.7294   -1.3244 C   0  0  2  0  0  0
  -35.7362    9.8268   -1.5434 C   0  0  1  0  0  0
  -35.5710    5.9235   -0.3969 C   0  0  1  0  0  0
  -34.8789    9.9142   -2.7725 C   0  0  0  0  0  0
  -33.6867   10.9514   -3.9694 C   0  0  0  0  0  0
  -35.0713   10.7069   -3.9686 C   0  0  0  0  0  0
  -34.6342    9.8335   -5.9364 C   0  0  0  0  0  0
  -33.5681    9.9581   -4.9567 C   0  0  0  0  0  0
  -35.6574   10.3319   -5.2605 C   0  0  0  0  0  0
  -33.1992    9.0329   -3.9305 C   0  0  0  0  0  0
  -33.4485   10.0236   -2.9141 C   0  0  0  0  0  0
  -37.2732    3.0307   -0.5317 C   0  0  0  0  0  0
  -35.8141    3.3979   -0.5983 C   0  0  0  0  0  0
  1  3  1  0  0  0
  1  5  1  0  0  0
  1  6  1  0  0  0
  2  4  1  0  0  0
  2  5  1  0  0  0
  3  6  1  0  0  0
  3  8  1  0  0  0
  4  7  1  0  0  0
  4  9  1  0  0  0
  5  6  1  0  0  0
  5  9  1  0  0  0
  6  8  1  0  0  0
  7 19  1  0  0  0
  7  9  1  0  0  0
  8 10  1  0  0  0
 10 12  2  0  0  0
 10 17  1  0  0  0
 11 12  1  0  0  0
 11 14  2  0  0  0
 11 17  1  0  0  0
 12 15  1  0  0  0
 13 14  1  0  0  0
 13 15  2  0  0  0
 14 16  1  0  0  0
 16 17  2  0  0  0
 18 19  1  0  0  0
M  END
> <s_m_entry_id>
39

> <s_m_entry_name>
NEW-hitrmd-var1_46_lig_gen_fit_add_gna.sdf.2

> <minimizedAffinity>
-8.88881

> <minimizedRMSD>
0.4649

> <CNNscore>
0.1788052022

> <CNNaffinity>
5.958507061

> <CNN_VS>
1.0654120445

> <CNNaffinity_variance>
0.1474218518

> <s_m_Source_Path>
C:\Users\maila\Downloads\mgr\NEW_model_var1_hitrmd

> <s_m_Source_File>
wzakresie-VAR1-NEW-hitrmd.maegz

> <i_m_Source_File_Index>
39

> <s_user_SMILES>
CC[C@@H]1[C@@H](C2)[C@H]1[C@]2(C345)[C@@H]3[C@@H]4[C@@H]5c(c6c78)c7C=Cc8c6

> <s_m_subgroup_title>
wzakresie-VAR1-NEW-hitrmd->NEW-hitrmd-var1_46_lig_gen_fit_add_gna

> <s_m_subgroupid>
wzakresie-VAR1-NEW-hitrmd->NEW-hitrmd-var1_46_lig_gen_fit_add_gna

> <b_m_subgroup_collapsed>
0

$$$$
C12C(C2)C1CC3C4C5C34C56[C]78=C(C67)C=9C8=CC9
                    3D
 Schrodinger Suite 2021-1.
 17 25  0  0  1  0            999 V2000
  -34.3673   10.6681   -7.1922 C   0  0  0  0  0  0
  -33.3452    9.0178   -6.6491 C   0  0  0  0  0  0
  -34.5814    9.7769   -6.2067 C   0  0  0  0  0  0
  -33.7324   10.5045   -5.1412 C   0  0  0  0  0  0
  -32.5655    9.7108   -5.5324 C   0  0  0  0  0  0
  -35.8456    9.0833   -2.2020 C   0  0  0  0  0  0
  -34.5524    8.9079   -1.4267 C   0  0  0  0  0  0
  -34.7839   10.1568   -2.3100 C   0  0  0  0  0  0
  -35.6130    9.7237   -3.5514 C   0  0  0  0  0  0
  -33.1291    9.9420   -7.6081 C   0  0  0  0  0  0
  -33.1201    9.4541   -4.1557 C   0  0  0  0  0  0
  -34.2555   10.3315   -3.7329 C   0  0  0  0  0  0
  -33.8573    7.5953   -1.8444 C   0  0  0  0  0  0
  -34.6342    4.1496   -0.5316 C   0  0  0  0  0  0
  -34.7190    5.6473   -0.3206 C   0  0  0  0  0  0
  -34.0354    5.0669   -1.5696 C   0  0  0  0  0  0
  -34.7853    6.3858   -1.6409 C   0  0  0  0  0  0
  1  3  2  0  0  0
  1 10  1  0  0  0
  2  3  1  0  0  0
  2  5  1  0  0  0
  2 10  2  0  0  0
  3  4  1  0  0  0
  4  5  2  0  0  0
  4 11  1  0  0  0
  4 12  1  0  0  0
  5 11  1  0  0  0
  6  7  1  0  0  0
  6  8  1  0  0  0
  6  9  1  0  0  0
  7  8  1  0  0  0
  7 13  1  0  0  0
  8  9  1  0  0  0
  8 12  1  0  0  0
  9 12  1  0  0  0
 11 12  1  0  0  0
 13 17  1  0  0  0
 14 15  1  0  0  0
 14 16  1  0  0  0
 15 16  1  0  0  0
 15 17  1  0  0  0
 16 17  1  0  0  0
M  END
> <s_m_entry_id>
40

> <s_m_entry_name>
NEW-hitrmd-var1_46_lig_gen_fit_add_gna.sdf.8

> <minimizedAffinity>
-8.52417

> <minimizedRMSD>
0.6751

> <CNNscore>
0.2763534486

> <CNNaffinity>
5.6669631004

> <CNN_VS>
1.5660847425

> <CNNaffinity_variance>
0.1707688719

> <s_m_Source_Path>
C:\Users\maila\Downloads\mgr\NEW_model_var1_hitrmd

> <s_m_Source_File>
wzakresie-VAR1-NEW-hitrmd.maegz

> <i_m_Source_File_Index>
40

> <s_user_SMILES>
C12C(C2)C1CC3C4C5C34C56[C]78=C(C67)C=9C8=CC9

> <s_m_subgroup_title>
wzakresie-VAR1-NEW-hitrmd->NEW-hitrmd-var1_46_lig_gen_fit_add_gna

> <s_m_subgroupid>
wzakresie-VAR1-NEW-hitrmd->NEW-hitrmd-var1_46_lig_gen_fit_add_gna

> <b_m_subgroup_collapsed>
0

$$$$
C1C2C(C123)C3CCC4C(C45)C5C[C]6(C7=[C]689)=CC=C9C8=C7
                    3D
 Schrodinger Suite 2021-1.
 20 28  0  0  1  0            999 V2000
  -36.0248    8.7529   -2.3797 C   0  0  0  0  0  0
  -35.1987    8.6825   -1.1065 C   0  0  0  0  0  0
  -36.3590   10.1496   -2.8199 C   0  0  0  0  0  0
  -36.0660    9.9020   -1.3472 C   0  0  0  0  0  0
  -35.2931   10.9403   -3.5969 C   0  0  0  0  0  0
  -32.5457    9.9035   -5.9292 C   0  0  0  0  0  0
  -34.6141   10.2400   -4.7833 C   0  0  0  0  0  0
  -33.5836   10.8098   -6.5892 C   0  0  0  0  0  0
  -34.7101   10.6624   -7.1863 C   0  0  0  0  0  0
  -32.4569    8.7404   -5.4612 C   0  0  0  0  0  0
  -33.3417    9.4809   -4.4301 C   0  0  0  0  0  0
  -35.4517   10.0188   -6.0888 C   0  0  0  0  0  0
  -33.2662   10.8307   -5.2335 C   0  0  0  0  0  0
  -35.6985    7.5897   -0.1510 C   0  0  0  0  0  0
  -34.8119    6.3394   -0.2930 C   0  0  0  0  0  0
  -35.2937    4.3433   -1.7814 C   0  0  0  0  0  0
  -37.7594    4.1777   -1.6378 C   0  0  0  0  0  0
  -36.5531    3.9257   -2.5190 C   0  0  0  0  0  0
  -35.6455    5.0795   -0.5013 C   0  0  0  0  0  0
  -36.6016    5.1577   -1.6657 C   0  0  0  0  0  0
  1  2  1  0  0  0
  1  3  1  0  0  0
  1  4  1  0  0  0
  2  4  1  0  0  0
  2 14  1  0  0  0
  3  5  1  0  0  0
  3  4  1  0  0  0
  5  7  1  0  0  0
  6  8  1  0  0  0
  6 10  2  0  0  0
  6 13  1  0  0  0
  7 11  1  0  0  0
  7 12  2  0  0  0
  7 13  1  0  0  0
  8  9  2  0  0  0
  8 13  1  0  0  0
  9 12  1  0  0  0
 10 11  1  0  0  0
 11 13  2  0  0  0
 14 15  1  0  0  0
 15 19  1  0  0  0
 16 18  1  0  0  0
 16 19  1  0  0  0
 16 20  1  0  0  0
 17 18  1  0  0  0
 17 20  1  0  0  0
 18 20  1  0  0  0
 19 20  1  0  0  0
M  END
> <s_m_entry_id>
41

> <s_m_entry_name>
NEW-hitrmd-var1_47_lig_gen_fit_add_gna.sdf.2

> <minimizedAffinity>
-8.06801

> <minimizedRMSD>
0.71047

> <CNNscore>
0.2035119981

> <CNNaffinity>
6.149289608

> <CNN_VS>
1.2514542341

> <CNNaffinity_variance>
0.1703235805

> <s_m_Source_Path>
C:\Users\maila\Downloads\mgr\NEW_model_var1_hitrmd

> <s_m_Source_File>
wzakresie-VAR1-NEW-hitrmd.maegz

> <i_m_Source_File_Index>
41

> <s_user_SMILES>
C1C2C(C123)C3CCC4C(C45)C5C[C]6(C7=[C]689)=CC=C9C8=C7

> <s_m_subgroup_title>
wzakresie-VAR1-NEW-hitrmd->NEW-hitrmd-var1_47_lig_gen_fit_add_gna

> <s_m_subgroupid>
wzakresie-VAR1-NEW-hitrmd->NEW-hitrmd-var1_47_lig_gen_fit_add_gna

> <b_m_subgroup_collapsed>
0

$$$$
[C@H]12[C@H]3[C@@]2([C@@]134)[C@H]4C[C@H]5C(C56)[C@H]6CC(C(=C78)C7)=C9C8=CC9
                    3D
 Schrodinger Suite 2021-1.
 19 27  0  0  1  0            999 V2000
  -35.5186    8.4827   -0.8400 C   0  0  1  0  0  0
  -34.8220   10.1874   -2.6373 C   0  0  2  0  0  0
  -34.7986    9.7570   -1.1856 C   0  0  3  0  0  0
  -35.4233    8.8312   -2.2978 C   0  0  3  0  0  0
  -34.6097    7.3784   -0.3053 C   0  0  0  0  0  0
  -34.5801    4.8621   -0.6775 C   0  0  1  0  0  0
  -34.3875    6.2278   -1.3046 C   0  0  1  0  0  0
  -36.0157    4.4756   -0.5110 C   0  0  1  0  0  0
  -35.5665    5.3612   -1.6950 C   0  0  2  0  0  0
  -35.2264    3.9073   -1.6869 C   0  0  1  0  0  0
  -33.4963   10.1857   -3.4323 C   0  0  0  0  0  0
  -35.6806   10.9674   -7.3542 C   0  0  0  0  0  0
  -34.6540    9.9528   -7.2908 C   0  0  0  0  0  0
  -32.8029   10.0237   -5.8152 C   0  0  0  0  0  0
  -36.0795   10.6329   -6.0643 C   0  0  0  0  0  0
  -33.2433   10.1832   -7.1158 C   0  0  0  0  0  0
  -33.7539    9.8141   -4.8454 C   0  0  0  0  0  0
  -31.9052   10.2141   -6.8101 C   0  0  0  0  0  0
  -34.7953    9.9257   -5.7849 C   0  0  0  0  0  0
  1  3  1  0  0  0
  1  5  1  0  0  0
  1  4  1  0  0  0
  2  3  1  0  0  0
  2  4  1  0  0  0
  2 11  1  0  0  0
  3  4  1  0  0  0
  5  7  1  0  0  0
  6  7  1  0  0  0
  6  8  1  0  0  0
  6  9  1  0  0  0
  6 10  1  0  0  0
  7  9  1  0  0  0
  8  9  1  0  0  0
  8 10  1  0  0  0
  9 10  1  0  0  0
 11 17  1  0  0  0
 12 13  2  0  0  0
 12 15  1  0  0  0
 13 16  1  0  0  0
 13 19  1  0  0  0
 14 16  2  0  0  0
 14 17  1  0  0  0
 14 18  1  0  0  0
 15 19  1  0  0  0
 16 18  1  0  0  0
 17 19  2  0  0  0
M  END
> <s_m_entry_id>
42

> <s_m_entry_name>
NEW-hitrmd-var1_47_lig_gen_fit_add_gna.sdf.3

> <minimizedAffinity>
-8.59711

> <minimizedRMSD>
2.11692

> <CNNscore>
0.3152503669

> <CNNaffinity>
6.1678152084

> <CNN_VS>
1.9444060326

> <CNNaffinity_variance>
0.14089863

> <s_m_Source_Path>
C:\Users\maila\Downloads\mgr\NEW_model_var1_hitrmd

> <s_m_Source_File>
wzakresie-VAR1-NEW-hitrmd.maegz

> <i_m_Source_File_Index>
42

> <s_user_SMILES>
[C@H]12[C@H]3[C@@]2([C@@]134)[C@H]4C[C@H]5C(C56)[C@H]6CC(C(=C78)C7)=C9C8=CC9

> <s_m_subgroup_title>
wzakresie-VAR1-NEW-hitrmd->NEW-hitrmd-var1_47_lig_gen_fit_add_gna

> <s_m_subgroupid>
wzakresie-VAR1-NEW-hitrmd->NEW-hitrmd-var1_47_lig_gen_fit_add_gna

> <b_m_subgroup_collapsed>
0

$$$$
CC=C=C1C(C123)C2C3C4CC(=[C]45[C]678)C=7C8C=C56
                    3D
 Schrodinger Suite 2021-1.
 17 24  0  0  1  0            999 V2000
  -33.3680   10.3319   -3.8577 C   0  0  0  0  0  0
  -35.4020   10.4482   -4.7992 C   0  0  0  0  0  0
  -35.2030    9.7522   -5.8349 C   0  0  0  0  0  0
  -34.9935   10.6092   -3.2073 C   0  0  0  0  0  0
  -33.5333   10.0983   -2.6216 C   0  0  0  0  0  0
  -34.3359   11.1693   -4.4030 C   0  0  0  0  0  0
  -34.1584    8.7243   -2.6379 C   0  0  0  0  0  0
  -35.5838    9.2428   -2.7721 C   0  0  0  0  0  0
  -33.7795   10.2766   -5.3870 C   0  0  0  0  0  0
  -36.7786    4.1846   -2.5961 C   0  0  0  0  0  0
  -35.6069    9.5646   -0.1853 C   0  0  0  0  0  0
  -36.0015    4.6222   -1.4006 C   0  0  0  0  0  0
  -35.9034    7.1248   -0.6866 C   0  0  0  0  0  0
  -36.3809    9.5371   -1.4823 C   0  0  0  0  0  0
  -35.9522    5.8772   -1.0515 C   0  0  0  0  0  0
  -35.4388    8.1663    0.3327 C   0  0  0  0  0  0
  -36.6178    8.4542   -0.4339 C   0  0  0  0  0  0
  1  5  1  0  0  0
  1  6  2  0  0  0
  1  9  1  0  0  0
  2  3  2  0  0  0
  2  4  1  0  0  0
  2  6  1  0  0  0
  3  9  1  0  0  0
  4  5  2  0  0  0
  4  6  1  0  0  0
  4  8  1  0  0  0
  5  7  1  0  0  0
  6  9  1  0  0  0
  7  8  1  0  0  0
  8 14  1  0  0  0
 10 12  1  0  0  0
 11 14  1  0  0  0
 11 16  1  0  0  0
 11 17  1  0  0  0
 12 15  2  0  0  0
 13 15  2  0  0  0
 13 16  1  0  0  0
 13 17  1  0  0  0
 14 17  1  0  0  0
 16 17  1  0  0  0
M  END
> <s_m_entry_id>
43

> <s_m_entry_name>
NEW-hitrmd-var1_47_lig_gen_fit_add_gna.sdf.9

> <minimizedAffinity>
-8.14768

> <minimizedRMSD>
0.6057

> <CNNscore>
0.2741468549

> <CNNaffinity>
5.6445527077

> <CNN_VS>
1.5474363565

> <CNNaffinity_variance>
0.2389017045

> <s_m_Source_Path>
C:\Users\maila\Downloads\mgr\NEW_model_var1_hitrmd

> <s_m_Source_File>
wzakresie-VAR1-NEW-hitrmd.maegz

> <i_m_Source_File_Index>
43

> <s_user_SMILES>
CC=C=C1C(C123)C2C3C4CC(=[C]45[C]678)C=7C8C=C56

> <s_m_subgroup_title>
wzakresie-VAR1-NEW-hitrmd->NEW-hitrmd-var1_47_lig_gen_fit_add_gna

> <s_m_subgroupid>
wzakresie-VAR1-NEW-hitrmd->NEW-hitrmd-var1_47_lig_gen_fit_add_gna

> <b_m_subgroup_collapsed>
0

$$$$
C1CC1C2C([C]23=[C]456)=C4C5=C(C36)C(C7)C8C([C]78=[C]129)=C9C1C=C2
                    3D
 Schrodinger Suite 2021-1.
 21 31  0  0  1  0            999 V2000
   44.7757  117.7996   17.1038 C   0  0  0  0  0  0
   43.9578  116.6683   17.4094 C   0  0  0  0  0  0
   45.6694  118.9397   16.9016 C   0  0  0  0  0  0
   45.2282  118.6997   18.4150 C   0  0  0  0  0  0
   46.1268  117.6744   17.4909 C   0  0  0  0  0  0
   46.0188  117.6125   18.9081 C   0  0  0  0  0  0
   46.2965  119.0298   19.4187 C   0  0  0  0  0  0
   45.3535  116.4390   18.1426 C   0  0  0  0  0  0
   44.9832  113.1459   13.7556 C   0  0  0  0  0  0
   44.8546  113.6915   12.3874 C   0  0  0  0  0  0
   45.5602  114.4293   13.5031 C   0  0  0  0  0  0
   43.9254  113.6963   14.7159 C   0  0  0  0  0  0
   44.4001  114.4812   15.9193 C   0  0  0  0  0  0
   44.7864  114.2329   11.2376 C   0  0  0  0  0  0
   43.8570  116.3025   14.8138 C   0  0  0  0  0  0
   44.5983  115.0180   14.5222 C   0  0  0  0  0  0
   45.5460  115.2606   12.1208 C   0  0  0  0  0  0
   43.5917  115.7592   16.2151 C   0  0  0  0  0  0
   47.8413  121.0731   19.2796 C   0  0  0  0  0  0
   48.6036  120.0016   20.0341 C   0  0  0  0  0  0
   47.6419  119.6060   18.9332 C   0  0  0  0  0  0
  1  2  2  0  0  0
  1  3  1  0  0  0
  1  5  1  0  0  0
  2  8  1  0  0  0
  2 18  1  0  0  0
  3  4  2  0  0  0
  3  5  1  0  0  0
  4  6  1  0  0  0
  4  7  1  0  0  0
  5  6  2  0  0  0
  5  8  1  0  0  0
  6  7  1  0  0  0
  6  8  1  0  0  0
  7 21  1  0  0  0
  9 10  1  0  0  0
  9 11  1  0  0  0
  9 12  2  0  0  0
 10 11  1  0  0  0
 10 14  1  0  0  0
 11 16  2  0  0  0
 11 17  1  0  0  0
 12 13  1  0  0  0
 12 16  1  0  0  0
 13 16  1  0  0  0
 13 18  1  0  0  0
 14 17  2  0  0  0
 15 16  1  0  0  0
 15 18  1  0  0  0
 19 20  1  0  0  0
 19 21  1  0  0  0
 20 21  1  0  0  0
M  END
> <s_m_entry_id>
44

> <s_m_entry_name>
NEW-hitrmd-var2_0_lig_gen_fit_add_gna.sdf.3

> <minimizedAffinity>
-8.77984

> <minimizedRMSD>
1.14459

> <CNNscore>
0.4554316401

> <CNNaffinity>
5.7495231628

> <CNN_VS>
2.6185147762

> <CNNaffinity_variance>
0.4192151129

> <s_m_Source_Path>
C:\Users\maila\Downloads\mgr\NEW_model_var2_hitrmd

> <s_m_Source_File>
wzakresie-NEW-var2-hitrmd.mae

> <i_m_Source_File_Index>
1

> <s_user_SMILES>
C1CC1C2C([C]23=[C]456)=C4C5=C(C36)C(C7)C8C([C]78=[C]129)=C9C1C=C2

> <s_m_subgroup_title>
wzakresie-NEW-var2-hitrmd->NEW-hitrmd-var2_0_lig_gen_fit_add_gna

> <s_m_subgroupid>
wzakresie-NEW-var2-hitrmd->NEW-hitrmd-var2_0_lig_gen_fit_add_gna

> <b_m_subgroup_collapsed>
0

$$$$
CCC1(C2C)C23[C]1(=[C]345)C4=C5C(C6)C7=[C]68[C]9([C]178)=[C]2(C=19)C=C2
                    3D
 Schrodinger Suite 2021-1.
 20 30  0  0  1  0            999 V2000
   45.1278  118.2579   18.0621 C   0  0  0  0  0  0
   46.0936  118.2160   19.2200 C   0  0  0  0  0  0
   44.5129  116.8608   17.9668 C   0  0  0  0  0  0
   48.7212  115.9794   20.5870 C   0  0  0  0  0  0
   45.9995  117.0820   18.1233 C   0  0  0  0  0  0
   46.6160  116.8743   19.5002 C   0  0  0  0  0  0
   48.1194  116.7222   19.3897 C   0  0  0  0  0  0
   47.5569  118.1272   19.5836 C   0  0  0  0  0  0
   44.7442  113.4287   14.5282 C   0  0  0  0  0  0
   45.2115  112.6996   12.4576 C   0  0  0  0  0  0
   44.6667  113.8757   13.0576 C   0  0  0  0  0  0
   44.7215  114.5618   15.5033 C   0  0  0  0  0  0
   45.1339  114.8488   14.1347 C   0  0  0  0  0  0
   43.7366  116.5570   16.6446 C   0  0  0  0  0  0
   43.9991  115.6688   14.7219 C   0  0  0  0  0  0
   45.8778  113.9529   12.3053 C   0  0  0  0  0  0
   43.4766  115.1664   16.0546 C   0  0  0  0  0  0
   44.3743  116.9918   15.3372 C   0  0  0  0  0  0
   48.5218  120.0020   20.9913 C   0  0  0  0  0  0
   47.7305  118.6946   21.0123 C   0  0  0  0  0  0
  1  2  1  0  0  0
  1  3  2  0  0  0
  1  5  1  0  0  0
  2  5  2  0  0  0
  2  6  1  0  0  0
  2  8  1  0  0  0
  3 14  1  0  0  0
  3  5  1  0  0  0
  4  7  1  0  0  0
  5  6  1  0  0  0
  6  7  1  0  0  0
  6  8  1  0  0  0
  7  8  1  0  0  0
  8 20  1  0  0  0
  9 11  1  0  0  0
  9 12  2  0  0  0
  9 13  1  0  0  0
 10 11  1  0  0  0
 10 16  2  0  0  0
 11 13  2  0  0  0
 11 16  1  0  0  0
 12 13  1  0  0  0
 12 15  1  0  0  0
 12 17  1  0  0  0
 13 15  1  0  0  0
 14 17  1  0  0  0
 14 18  1  0  0  0
 15 17  2  0  0  0
 15 18  1  0  0  0
 19 20  1  0  0  0
M  END
> <s_m_entry_id>
45

> <s_m_entry_name>
NEW-hitrmd-var2_0_lig_gen_fit_add_gna.sdf.7

> <minimizedAffinity>
-8.30214

> <minimizedRMSD>
1.21651

> <CNNscore>
0.3381876945

> <CNNaffinity>
5.7487621307

> <CNN_VS>
1.9441605806

> <CNNaffinity_variance>
0.0837214664

> <s_m_Source_Path>
C:\Users\maila\Downloads\mgr\NEW_model_var2_hitrmd

> <s_m_Source_File>
wzakresie-NEW-var2-hitrmd.mae

> <i_m_Source_File_Index>
2

> <s_user_SMILES>
CCC1(C2C)C23[C]1(=[C]345)C4=C5C(C6)C7=[C]68[C]9([C]178)=[C]2(C=19)C=C2

> <s_m_subgroup_title>
wzakresie-NEW-var2-hitrmd->NEW-hitrmd-var2_0_lig_gen_fit_add_gna

> <s_m_subgroupid>
wzakresie-NEW-var2-hitrmd->NEW-hitrmd-var2_0_lig_gen_fit_add_gna

> <b_m_subgroup_collapsed>
0

$$$$
C1=C2[C]1([C]234)=C4C=3CC5C6C57C68C79C1(C289)[C]23=[C]12[C]13=C3C(=C3)C12
                    3D
 Schrodinger Suite 2021-1.
 21 35  0  0  1  0            999 V2000
   35.2433  -23.4785   -7.7220 C   0  0  0  0  0  0
   33.6725  -24.2320  -13.0655 C   0  0  0  0  0  0
   34.9159  -23.7465  -12.5217 C   0  0  0  0  0  0
   32.5858  -23.4725  -12.5186 C   0  0  0  0  0  0
   35.0858  -24.3173  -11.1381 C   0  0  0  0  0  0
   32.8686  -24.8197  -12.0075 C   0  0  0  0  0  0
   35.6967  -23.5793   -9.9917 C   0  0  0  0  0  0
   36.9175  -24.8350   -6.4193 C   0  0  0  0  0  0
   34.2759  -23.4094  -10.1386 C   0  0  0  0  0  0
   36.6559  -23.7510   -7.4654 C   0  0  0  0  0  0
   34.6844  -24.1952   -8.9142 C   0  0  0  0  0  0
   33.8323  -23.6645  -11.5960 C   0  0  0  0  0  0
   36.0990  -24.3305   -8.7561 C   0  0  0  0  0  0
   35.5783  -24.1342   -6.4059 C   0  0  0  0  0  0
   36.8773  -26.3084   -6.8697 C   0  0  0  0  0  0
   37.8541  -28.5935   -6.2927 C   0  0  0  0  0  0
   39.8579  -27.9790   -4.9301 C   0  0  0  0  0  0
   40.4205  -28.4391   -6.2372 C   0  0  0  0  0  0
   39.2322  -28.9517   -5.7538 C   0  0  0  0  0  0
   38.9696  -27.6512   -6.1921 C   0  0  0  0  0  0
   37.5563  -27.1917   -5.8235 C   0  0  0  0  0  0
  1 10  1  0  0  0
  1 11  1  0  0  0
  1 13  1  0  0  0
  1 14  1  0  0  0
  2  3  1  0  0  0
  2  4  2  0  0  0
  2  6  1  0  0  0
  3  5  1  0  0  0
  3 12  1  0  0  0
  4  6  1  0  0  0
  5  7  1  0  0  0
  5  9  2  0  0  0
  5 12  1  0  0  0
  6 12  2  0  0  0
  7  9  1  0  0  0
  7 11  1  0  0  0
  7 13  1  0  0  0
  8 15  1  0  0  0
  8 10  1  0  0  0
  8 14  1  0  0  0
  9 11  1  0  0  0
  9 12  1  0  0  0
 10 13  1  0  0  0
 10 14  1  0  0  0
 11 13  1  0  0  0
 15 21  1  0  0  0
 16 19  2  0  0  0
 16 20  1  0  0  0
 16 21  1  0  0  0
 17 18  2  0  0  0
 17 19  1  0  0  0
 17 20  1  0  0  0
 18 19  1  0  0  0
 19 20  1  0  0  0
 20 21  2  0  0  0
M  END
> <s_m_entry_id>
46

> <s_m_entry_name>
NEW-hitrmd-var2_2_lig_gen_fit_add_gna.sdf.1

> <minimizedAffinity>
-9.51363

> <minimizedRMSD>
0.4601

> <CNNscore>
0.5924907923

> <CNNaffinity>
5.7289619446

> <CNN_VS>
3.3943572044

> <CNNaffinity_variance>
0.4804564416

> <s_m_Source_Path>
C:\Users\maila\Downloads\mgr\NEW_model_var2_hitrmd

> <s_m_Source_File>
wzakresie-NEW-var2-hitrmd.mae

> <i_m_Source_File_Index>
3

> <s_user_SMILES>
C1=C2[C]1([C]234)=C4C=3CC5C6C57C68C79C1(C289)[C]23=[C]12[C]13=C3C(=C3)C12

> <s_m_subgroup_title>
wzakresie-NEW-var2-hitrmd->NEW-hitrmd-var2_2_lig_gen_fit_add_gna

> <s_m_subgroupid>
wzakresie-NEW-var2-hitrmd->NEW-hitrmd-var2_2_lig_gen_fit_add_gna

> <b_m_subgroup_collapsed>
0

$$$$
C1C2[C]=1([C]234)C=4C3=C=C5C(C67)[C]57=[C]68c9c8c1c9c2c1cc2
                    3D
 Schrodinger Suite 2021-1.
 20 30  0  0  1  0            999 V2000
   36.3720  -23.6894   -7.0150 C   0  0  0  0  0  0
   33.2786  -23.5966  -11.9138 C   0  0  0  0  0  0
   35.0219  -24.3925  -11.1806 C   0  0  0  0  0  0
   39.8141  -28.7117   -5.9814 C   0  0  0  0  0  0
   35.1866  -24.2373   -7.8342 C   0  0  0  0  0  0
   34.5836  -24.0375  -12.5176 C   0  0  0  0  0  0
   40.2357  -29.0398   -4.7096 C   0  0  0  0  0  0
   33.6199  -24.2185  -10.7107 C   0  0  0  0  0  0
   35.5988  -23.2267  -10.4083 C   0  0  0  0  0  0
   34.0917  -22.9131  -10.0317 C   0  0  0  0  0  0
   40.4050  -27.6554   -5.2449 C   0  0  0  0  0  0
   38.9045  -28.1338   -5.0983 C   0  0  0  0  0  0
   35.6428  -23.8262   -9.0717 C   0  0  0  0  0  0
   36.0552  -23.6367   -5.6124 C   0  0  0  0  0  0
   34.4283  -23.5529   -8.7635 C   0  0  0  0  0  0
   38.3632  -28.5038   -6.3359 C   0  0  0  0  0  0
   35.0089  -23.2890   -6.6266 C   0  0  0  0  0  0
   37.4307  -25.9785   -5.9437 C   0  0  0  0  0  0
   37.9464  -27.1633   -5.7914 C   0  0  0  0  0  0
   36.9129  -24.7958   -6.1054 C   0  0  0  0  0  0
  1  5  2  0  0  0
  1 14  1  0  0  0
  1 17  1  0  0  0
  1 20  1  0  0  0
  2  6  2  0  0  0
  2  8  1  0  0  0
  3  6  1  0  0  0
  3  8  2  0  0  0
  3  9  1  0  0  0
  4  7  2  0  0  0
  4 11  1  0  0  0
  4 12  1  0  0  0
  4 16  1  0  0  0
  5 13  1  0  0  0
  5 15  1  0  0  0
  5 17  1  0  0  0
  7 11  1  0  0  0
  8 10  1  0  0  0
  9 10  2  0  0  0
  9 13  1  0  0  0
 10 15  1  0  0  0
 11 12  1  0  0  0
 12 16  2  0  0  0
 12 19  1  0  0  0
 13 15  2  0  0  0
 14 17  1  0  0  0
 14 20  1  0  0  0
 16 19  1  0  0  0
 18 19  2  0  0  0
 18 20  2  0  0  0
M  END
> <s_m_entry_id>
47

> <s_m_entry_name>
NEW-hitrmd-var2_2_lig_gen_fit_add_gna.sdf.5

> <minimizedAffinity>
-10.14636

> <minimizedRMSD>
0.5893

> <CNNscore>
0.6317725778

> <CNNaffinity>
5.7117033005

> <CNN_VS>
3.6084976196

> <CNNaffinity_variance>
0.3911382556

> <s_m_Source_Path>
C:\Users\maila\Downloads\mgr\NEW_model_var2_hitrmd

> <s_m_Source_File>
wzakresie-NEW-var2-hitrmd.mae

> <i_m_Source_File_Index>
4

> <s_user_SMILES>
C1C2[C]=1([C]234)C=4C3=C=C5C(C67)[C]57=[C]68c9c8c1c9c2c1cc2

> <s_m_subgroup_title>
wzakresie-NEW-var2-hitrmd->NEW-hitrmd-var2_2_lig_gen_fit_add_gna

> <s_m_subgroupid>
wzakresie-NEW-var2-hitrmd->NEW-hitrmd-var2_2_lig_gen_fit_add_gna

> <b_m_subgroup_collapsed>
0

$$$$
C1=C2[C]1(=[C]234)[C]35=[C]67[C]45=[C]68C9(C78)C12C3(C19)C2C3C(C1)C2=C1C1[C]2([C]12=3)=C2C3
                    3D
 Schrodinger Suite 2021-1.
 24 40  0  0  1  0            999 V2000
   36.6874  -29.0053   -8.0054 C   0  0  0  0  0  0
   35.9925  -28.8023   -5.6130 C   0  0  0  0  0  0
   36.1770  -31.2433   -8.8849 C   0  0  0  0  0  0
   34.0874  -24.3478   -6.3737 C   0  0  0  0  0  0
   35.1142  -27.5532   -5.4676 C   0  0  0  0  0  0
   37.2480  -30.1497   -8.8429 C   0  0  0  0  0  0
   34.7882  -23.4370   -7.3506 C   0  0  0  0  0  0
   36.5612  -30.5417   -7.6057 C   0  0  0  0  0  0
   35.7663  -29.4291   -6.9930 C   0  0  0  0  0  0
   37.0613  -28.5960   -6.6125 C   0  0  0  0  0  0
   35.5489  -23.9506   -6.1190 C   0  0  0  0  0  0
   35.0414  -25.2740   -5.6453 C   0  0  0  0  0  0
   36.5548  -27.4029   -5.8315 C   0  0  0  0  0  0
   35.5461  -26.4580   -6.4730 C   0  0  0  0  0  0
   36.4094  -25.1988   -6.2732 C   0  0  0  0  0  0
   33.7888  -23.6951  -12.1310 C   0  0  0  0  0  0
   33.0037  -24.8154  -12.1704 C   0  0  0  0  0  0
   33.8214  -24.1853  -10.8177 C   0  0  0  0  0  0
   32.5234  -23.5639  -11.5162 C   0  0  0  0  0  0
   35.0864  -24.0082  -11.4631 C   0  0  0  0  0  0
   34.2401  -23.1422   -9.7779 C   0  0  0  0  0  0
   34.8800  -24.0870   -8.7467 C   0  0  0  0  0  0
   35.5080  -22.9765  -10.4274 C   0  0  0  0  0  0
   36.1670  -23.8981   -9.3976 C   0  0  0  0  0  0
  1  6  1  0  0  0
  1  8  2  0  0  0
  1  9  1  0  0  0
  1 10  1  0  0  0
  2  5  1  0  0  0
  2  9  2  0  0  0
  2 10  1  0  0  0
  2 13  1  0  0  0
  3  6  2  0  0  0
  3  8  1  0  0  0
  4  7  1  0  0  0
  4 11  1  0  0  0
  4 12  1  0  0  0
  5 13  1  0  0  0
  5 14  1  0  0  0
  6  8  1  0  0  0
  7 11  1  0  0  0
  7 22  1  0  0  0
  8  9  1  0  0  0
  9 10  1  0  0  0
 10 13  2  0  0  0
 11 12  1  0  0  0
 11 15  1  0  0  0
 12 14  1  0  0  0
 12 15  1  0  0  0
 13 14  1  0  0  0
 14 15  1  0  0  0
 16 17  2  0  0  0
 16 18  1  0  0  0
 16 19  1  0  0  0
 16 20  1  0  0  0
 17 19  1  0  0  0
 18 19  2  0  0  0
 18 20  1  0  0  0
 18 21  1  0  0  0
 20 23  1  0  0  0
 21 22  1  0  0  0
 21 23  2  0  0  0
 22 24  1  0  0  0
 23 24  1  0  0  0
M  END
> <s_m_entry_id>
48

> <s_m_entry_name>
NEW-hitrmd-var2_2_lig_gen_fit_add_gna.sdf.7

> <minimizedAffinity>
-11.45901

> <minimizedRMSD>
0.54453

> <CNNscore>
0.4164244533

> <CNNaffinity>
6.5786347389

> <CNN_VS>
2.7395043373

> <CNNaffinity_variance>
0.0550454482

> <s_m_Source_Path>
C:\Users\maila\Downloads\mgr\NEW_model_var2_hitrmd

> <s_m_Source_File>
wzakresie-NEW-var2-hitrmd.mae

> <i_m_Source_File_Index>
5

> <s_user_SMILES>
C1=C2[C]1(=[C]234)[C]35=[C]67[C]45=[C]68C9(C78)C12C3(C19)C2C3C(C1)C2=C1C1[C]2([C]12=3)=C2C3

> <s_m_subgroup_title>
wzakresie-NEW-var2-hitrmd->NEW-hitrmd-var2_2_lig_gen_fit_add_gna

> <s_m_subgroupid>
wzakresie-NEW-var2-hitrmd->NEW-hitrmd-var2_2_lig_gen_fit_add_gna

> <b_m_subgroup_collapsed>
0

$$$$
[C]1=23C(C2)=C1C3C#CC(C45)(C6)C56C47[C]89=C(C78)C=1C9=CC1
                    3D
 Schrodinger Suite 2021-1.
 19 28  0  0  1  0            999 V2000
   33.5457  -24.2196  -10.3884 C   0  0  0  0  0  0
   35.3335  -23.2584  -10.9920 C   0  0  0  0  0  0
   32.7638  -23.4879  -11.2133 C   0  0  0  0  0  0
   33.7131  -23.7291  -12.3380 C   0  0  0  0  0  0
   34.5197  -24.4410  -11.5213 C   0  0  0  0  0  0
   35.7957  -23.3053   -6.0341 C   0  0  0  0  0  0
   34.5155  -24.5083   -7.7691 C   0  0  0  0  0  0
   35.8420  -23.9098   -7.4278 C   0  0  0  0  0  0
   35.0244  -24.5746   -6.3425 C   0  0  0  0  0  0
   34.4043  -23.0484   -9.8833 C   0  0  0  0  0  0
   35.8681  -23.4309   -9.6152 C   0  0  0  0  0  0
   34.9471  -23.1750   -8.4240 C   0  0  0  0  0  0
   35.7716  -25.8031   -6.0433 C   0  0  0  0  0  0
   36.4300  -26.7968   -5.8643 C   0  0  0  0  0  0
   38.6374  -27.7970   -5.1497 C   0  0  0  0  0  0
   39.3829  -28.9041   -6.1920 C   0  0  0  0  0  0
   37.2634  -27.9929   -5.6797 C   0  0  0  0  0  0
   38.4933  -27.9192   -6.5418 C   0  0  0  0  0  0
   39.7901  -27.4687   -6.1988 C   0  0  0  0  0  0
  1  3  2  0  0  0
  1  5  1  0  0  0
  1 10  1  0  0  0
  2  5  1  0  0  0
  2 10  2  0  0  0
  2 11  1  0  0  0
  3  4  1  0  0  0
  4  5  2  0  0  0
  6  8  1  0  0  0
  6  9  1  0  0  0
  7  8  1  0  0  0
  7  9  1  0  0  0
  7 12  1  0  0  0
  8  9  1  0  0  0
  8 12  1  0  0  0
  9 13  1  0  0  0
 10 11  1  0  0  0
 10 12  1  0  0  0
 11 12  1  0  0  0
 13 14  3  0  0  0
 14 17  1  0  0  0
 15 17  1  0  0  0
 15 18  1  0  0  0
 15 19  2  0  0  0
 16 18  2  0  0  0
 16 19  1  0  0  0
 17 18  1  0  0  0
 18 19  1  0  0  0
M  END
> <s_m_entry_id>
49

> <s_m_entry_name>
NEW-hitrmd-var2_2_lig_gen_fit_add_gna.sdf.9

> <minimizedAffinity>
-8.38459

> <minimizedRMSD>
0.89507

> <CNNscore>
0.4983620346

> <CNNaffinity>
5.5906443596

> <CNN_VS>
2.786164999

> <CNNaffinity_variance>
0.2815526426

> <s_m_Source_Path>
C:\Users\maila\Downloads\mgr\NEW_model_var2_hitrmd

> <s_m_Source_File>
wzakresie-NEW-var2-hitrmd.mae

> <i_m_Source_File_Index>
6

> <s_user_SMILES>
[C]1=23C(C2)=C1C3C#CC(C45)(C6)C56C47[C]89=C(C78)C=1C9=CC1

> <s_m_subgroup_title>
wzakresie-NEW-var2-hitrmd->NEW-hitrmd-var2_2_lig_gen_fit_add_gna

> <s_m_subgroupid>
wzakresie-NEW-var2-hitrmd->NEW-hitrmd-var2_2_lig_gen_fit_add_gna

> <b_m_subgroup_collapsed>
0

$$$$
C1CC1CC(C2)C23C4C5(C(C34)C5)C6C7=[C]6(C789)C9=C8C
                    3D
 Schrodinger Suite 2021-1.
 19 27  0  0  1  0            999 V2000
  -35.5920   12.2924  -27.5104 C   0  0  0  0  0  0
  -34.1890   12.6794  -27.1240 C   0  0  0  0  0  0
  -32.2279   12.1571  -28.9262 C   0  0  0  0  0  0
  -33.0047   11.7975  -27.6040 C   0  0  0  0  0  0
  -33.6693   11.7049  -28.9541 C   0  0  0  0  0  0
  -31.7278   11.0461  -29.9026 C   0  0  0  0  0  0
  -30.8688   11.4001  -28.7663 C   0  0  0  0  0  0
  -34.6807   12.7426  -28.5772 C   0  0  0  0  0  0
  -33.5094   16.2220  -25.1682 C   0  0  0  0  0  0
  -34.5354   17.2508  -25.5303 C   0  0  0  0  0  0
  -32.5744   15.5969  -24.2000 C   0  0  0  0  0  0
  -33.0003   14.7018  -26.6923 C   0  0  0  0  0  0
  -33.1583   14.4434  -25.2336 C   0  0  0  0  0  0
  -34.2139   13.9673  -26.2758 C   0  0  0  0  0  0
  -32.4039   15.5625  -25.6115 C   0  0  0  0  0  0
  -29.5779   12.0786  -29.2619 C   0  0  0  0  0  0
  -28.5968   14.1807  -30.4132 C   0  0  0  0  0  0
  -29.3828   13.4398  -31.4795 C   0  0  0  0  0  0
  -29.8382   13.3914  -30.0269 C   0  0  0  0  0  0
  1  2  1  0  0  0
  1  8  1  0  0  0
  2 14  1  0  0  0
  2  4  1  0  0  0
  2  8  1  0  0  0
  3  4  1  0  0  0
  3  5  1  0  0  0
  3  6  1  0  0  0
  3  7  1  0  0  0
  4  5  1  0  0  0
  5  8  1  0  0  0
  6  7  1  0  0  0
  7 16  1  0  0  0
  9 10  1  0  0  0
  9 11  2  0  0  0
  9 15  1  0  0  0
 11 13  1  0  0  0
 11 15  1  0  0  0
 12 13  2  0  0  0
 12 14  1  0  0  0
 12 15  1  0  0  0
 13 14  1  0  0  0
 13 15  1  0  0  0
 16 19  1  0  0  0
 17 18  1  0  0  0
 17 19  1  0  0  0
 18 19  1  0  0  0
M  END
> <s_m_entry_id>
50

> <s_m_entry_name>
NEW-hitrmd-var2_3_lig_gen_fit_add_gna.sdf.7

> <minimizedAffinity>
-8.30544

> <minimizedRMSD>
0.52211

> <CNNscore>
0.2623185813

> <CNNaffinity>
6.0058708191

> <CNN_VS>
1.5754514933

> <CNNaffinity_variance>
0.3436237872

> <s_m_Source_Path>
C:\Users\maila\Downloads\mgr\NEW_model_var2_hitrmd

> <s_m_Source_File>
wzakresie-NEW-var2-hitrmd.mae

> <i_m_Source_File_Index>
7

> <s_user_SMILES>
C1CC1CC(C2)C23C4C5(C(C34)C5)C6C7=[C]6(C789)C9=C8C

> <s_m_subgroup_title>
wzakresie-NEW-var2-hitrmd->NEW-hitrmd-var2_3_lig_gen_fit_add_gna

> <s_m_subgroupid>
wzakresie-NEW-var2-hitrmd->NEW-hitrmd-var2_3_lig_gen_fit_add_gna

> <b_m_subgroup_collapsed>
0

$$$$
CCC(C1)C12C(C2)CC(C3)C4=[C]5([C]34=6)C(C6)=CC5
                    3D
 Schrodinger Suite 2021-1.
 17 22  0  0  1  0            999 V2000
  -33.0114   16.5131  -25.6474 C   0  0  0  0  0  0
  -33.8934   17.6301  -25.2412 C   0  0  0  0  0  0
  -35.0077   16.8121  -25.3828 C   0  0  0  0  0  0
  -32.5942   15.6341  -24.5400 C   0  0  0  0  0  0
  -34.1556   15.7164  -26.0036 C   0  0  0  0  0  0
  -33.5949   14.5816  -24.9904 C   0  0  0  0  0  0
  -32.9335   13.4297  -25.7582 C   0  0  0  0  0  0
  -34.8471   14.4077  -25.7964 C   0  0  0  0  0  0
  -34.2517   13.1698  -26.4788 C   0  0  0  0  0  0
  -34.3327   13.1671  -28.0342 C   0  0  0  0  0  0
  -30.8494   12.7574  -28.2408 C   0  0  0  0  0  0
  -32.0445   12.4380  -29.1753 C   0  0  0  0  0  0
  -33.0229   13.0754  -30.1915 C   0  0  0  0  0  0
  -33.0476   13.5595  -28.7876 C   0  0  0  0  0  0
  -30.6778   12.9817  -29.6927 C   0  0  0  0  0  0
  -29.7671   11.9746  -30.3756 C   0  0  0  0  0  0
  -28.8850   12.6644  -31.4096 C   0  0  0  0  0  0
  1  2  2  0  0  0
  1  4  1  0  0  0
  1  5  1  0  0  0
  2  3  1  0  0  0
  3  5  1  0  0  0
  4  6  2  0  0  0
  5  6  1  0  0  0
  5  8  2  0  0  0
  6  7  1  0  0  0
  6  8  1  0  0  0
  7  9  1  0  0  0
  8  9  1  0  0  0
  9 10  1  0  0  0
 10 14  1  0  0  0
 11 12  1  0  0  0
 11 15  1  0  0  0
 12 13  1  0  0  0
 12 14  1  0  0  0
 12 15  1  0  0  0
 13 14  1  0  0  0
 15 16  1  0  0  0
 16 17  1  0  0  0
M  END
> <s_m_entry_id>
51

> <s_m_entry_name>
NEW-hitrmd-var2_3_lig_gen_fit_add_gna.sdf.8

> <minimizedAffinity>
-8.11819

> <minimizedRMSD>
0.75749

> <CNNscore>
0.2639504373

> <CNNaffinity>
5.7035531998

> <CNN_VS>
1.5054553747

> <CNNaffinity_variance>
0.3280493319

> <s_m_Source_Path>
C:\Users\maila\Downloads\mgr\NEW_model_var2_hitrmd

> <s_m_Source_File>
wzakresie-NEW-var2-hitrmd.mae

> <i_m_Source_File_Index>
8

> <s_user_SMILES>
CCC(C1)C12C(C2)CC(C3)C4=[C]5([C]34=6)C(C6)=CC5

> <s_m_subgroup_title>
wzakresie-NEW-var2-hitrmd->NEW-hitrmd-var2_3_lig_gen_fit_add_gna

> <s_m_subgroupid>
wzakresie-NEW-var2-hitrmd->NEW-hitrmd-var2_3_lig_gen_fit_add_gna

> <b_m_subgroup_collapsed>
0

$$$$
C1C(C2)C12CC3C(C345)C5C4[C]6(C7=[C]689)=CC9C8=C7
                    3D
 Schrodinger Suite 2021-1.
 17 25  0  0  1  0            999 V2000
  -33.4316   11.6788  -28.6030 C   0  0  0  0  0  0
  -31.9221   11.6477  -28.4856 C   0  0  0  0  0  0
  -34.1085   12.2346  -27.3681 C   0  0  0  0  0  0
  -32.7895   11.4665  -27.2393 C   0  0  0  0  0  0
  -33.1598   12.5567  -26.2324 C   0  0  0  0  0  0
  -34.2009   16.3422  -25.7934 C   0  0  0  0  0  0
  -33.0281   16.0119  -24.7613 C   0  0  0  0  0  0
  -33.9841   15.0997  -25.8977 C   0  0  0  0  0  0
  -31.8335   15.1215  -25.2656 C   0  0  0  0  0  0
  -31.3261   14.6021  -26.2932 C   0  0  0  0  0  0
  -33.1026   14.5850  -24.9106 C   0  0  0  0  0  0
  -32.8312   14.0588  -26.2322 C   0  0  0  0  0  0
  -31.2810   12.9521  -28.9535 C   0  0  0  0  0  0
  -29.4999   13.7208  -30.6635 C   0  0  0  0  0  0
  -29.1332   12.3192  -30.2380 C   0  0  0  0  0  0
  -30.8506   13.7903  -31.3458 C   0  0  0  0  0  0
  -30.6044   12.6959  -30.3245 C   0  0  0  0  0  0
  1  2  1  0  0  0
  1  3  1  0  0  0
  1  4  1  0  0  0
  2 13  1  0  0  0
  2  4  1  0  0  0
  3  4  1  0  0  0
  3  5  1  0  0  0
  4  5  1  0  0  0
  5 12  1  0  0  0
  6  7  2  0  0  0
  6  8  1  0  0  0
  7  9  1  0  0  0
  7 11  1  0  0  0
  8 11  2  0  0  0
  8 12  1  0  0  0
  9 10  1  0  0  0
  9 11  1  0  0  0
 10 12  2  0  0  0
 11 12  1  0  0  0
 13 17  1  0  0  0
 14 15  1  0  0  0
 14 16  1  0  0  0
 14 17  1  0  0  0
 15 17  1  0  0  0
 16 17  1  0  0  0
M  END
> <s_m_entry_id>
52

> <s_m_entry_name>
NEW-hitrmd-var2_3_lig_gen_fit_add_gna.sdf.9

> <minimizedAffinity>
-8.32009

> <minimizedRMSD>
1.17843

> <CNNscore>
0.2413855493

> <CNNaffinity>
5.7360038757

> <CNN_VS>
1.38458848

> <CNNaffinity_variance>
0.2347704619

> <s_m_Source_Path>
C:\Users\maila\Downloads\mgr\NEW_model_var2_hitrmd

> <s_m_Source_File>
wzakresie-NEW-var2-hitrmd.mae

> <i_m_Source_File_Index>
9

> <s_user_SMILES>
C1C(C2)C12CC3C(C345)C5C4[C]6(C7=[C]689)=CC9C8=C7

> <s_m_subgroup_title>
wzakresie-NEW-var2-hitrmd->NEW-hitrmd-var2_3_lig_gen_fit_add_gna

> <s_m_subgroupid>
wzakresie-NEW-var2-hitrmd->NEW-hitrmd-var2_3_lig_gen_fit_add_gna

> <b_m_subgroup_collapsed>
0

$$$$
C12C(C2)C1CC3=CC=4[C]3([C]456)=C5C6C7C8[C]9([C]78=[C]129)=CC1=C2
                    3D
 Schrodinger Suite 2021-1.
 20 30  0  0  1  0            999 V2000
  -35.7266   25.6701   -5.3789 C   0  0  0  0  0  0
  -37.3169   25.2910   -7.3051 C   0  0  0  0  0  0
  -35.2377   27.1162   -5.3111 C   0  0  0  0  0  0
  -36.9349   26.1493   -6.1258 C   0  0  0  0  0  0
  -36.3842   27.5551   -6.2367 C   0  0  0  0  0  0
  -36.6405   23.9338   -7.1022 C   0  0  0  0  0  0
  -35.9064   25.2313   -6.8245 C   0  0  0  0  0  0
  -34.7311   22.4907  -10.0228 C   0  0  0  0  0  0
  -35.5111   24.2816  -11.9289 C   0  0  0  0  0  0
  -34.3962   23.6228  -11.3615 C   0  0  0  0  0  0
  -35.6871   23.3192  -10.9207 C   0  0  0  0  0  0
  -36.4275   23.2022   -8.4298 C   0  0  0  0  0  0
  -35.5011   23.7466   -9.4862 C   0  0  0  0  0  0
  -34.9815   22.6803   -8.5401 C   0  0  0  0  0  0
  -33.3893   22.9058  -10.7005 C   0  0  0  0  0  0
  -37.3211   28.6041   -5.6329 C   0  0  0  0  0  0
  -39.6047   29.8060   -8.3150 C   0  0  0  0  0  0
  -39.1367   29.9266   -6.8950 C   0  0  0  0  0  0
  -38.3255   29.0903   -7.9376 C   0  0  0  0  0  0
  -37.6719   29.6515   -6.6921 C   0  0  0  0  0  0
  1  3  1  0  0  0
  1  4  1  0  0  0
  1  7  2  0  0  0
  2  4  2  0  0  0
  2  6  1  0  0  0
  2  7  1  0  0  0
  3  5  2  0  0  0
  4  5  1  0  0  0
  4  7  1  0  0  0
  5 16  1  0  0  0
  6 12  1  0  0  0
  6  7  1  0  0  0
  8 11  1  0  0  0
  8 13  1  0  0  0
  8 14  1  0  0  0
  8 15  2  0  0  0
  9 10  2  0  0  0
  9 11  1  0  0  0
 10 11  1  0  0  0
 10 15  1  0  0  0
 11 13  2  0  0  0
 12 13  1  0  0  0
 12 14  1  0  0  0
 13 14  1  0  0  0
 16 20  1  0  0  0
 17 18  1  0  0  0
 17 19  1  0  0  0
 18 19  1  0  0  0
 18 20  1  0  0  0
 19 20  1  0  0  0
M  END
> <s_m_entry_id>
53

> <s_m_entry_name>
NEW-hitrmd-var2_4_lig_gen_fit_add_gna.sdf.2

> <minimizedAffinity>
-9.2908

> <minimizedRMSD>
0.96754

> <CNNscore>
0.4675628245

> <CNNaffinity>
5.6478142738

> <CNN_VS>
2.6407079697

> <CNNaffinity_variance>
0.3445874751

> <s_m_Source_Path>
C:\Users\maila\Downloads\mgr\NEW_model_var2_hitrmd

> <s_m_Source_File>
wzakresie-NEW-var2-hitrmd.mae

> <i_m_Source_File_Index>
10

> <s_user_SMILES>
C12C(C2)C1CC3=CC=4[C]3([C]456)=C5C6C7C8[C]9([C]78=[C]129)=CC1=C2

> <s_m_subgroup_title>
wzakresie-NEW-var2-hitrmd->NEW-hitrmd-var2_4_lig_gen_fit_add_gna

> <s_m_subgroupid>
wzakresie-NEW-var2-hitrmd->NEW-hitrmd-var2_4_lig_gen_fit_add_gna

> <b_m_subgroup_collapsed>
0

$$$$
CCCC1C=2C1([C]234)C4=C3CC5CC6=C[C]7(C568)=C8C=C7
                    3D
 Schrodinger Suite 2021-1.
 19 26  0  0  1  0            999 V2000
  -36.8704   23.3180   -7.7491 C   0  0  0  0  0  0
  -35.3740   23.4859  -12.5139 C   0  0  0  0  0  0
  -33.3189   22.8576  -10.4089 C   0  0  0  0  0  0
  -34.1891   24.0930  -12.2228 C   0  0  0  0  0  0
  -34.1853   22.0945   -9.4984 C   0  0  0  0  0  0
  -35.7894   23.6984  -11.1174 C   0  0  0  0  0  0
  -34.4450   22.5801   -8.0692 C   0  0  0  0  0  0
  -34.4019   23.8987  -10.7331 C   0  0  0  0  0  0
  -35.4063   22.8791   -9.9548 C   0  0  0  0  0  0
  -35.5836   23.4855   -8.5599 C   0  0  0  0  0  0
  -37.5986   25.8072   -7.9571 C   0  0  0  0  0  0
  -36.6488   26.7936   -5.9126 C   0  0  0  0  0  0
  -36.3937   25.7324   -6.9622 C   0  0  0  0  0  0
  -36.9079   27.0544   -7.4091 C   0  0  0  0  0  0
  -37.3830   24.6020   -7.0667 C   0  0  0  0  0  0
  -37.7077   27.7885   -6.3544 C   0  0  0  0  0  0
  -37.3405   29.2759   -6.2437 C   0  0  0  0  0  0
  -39.3299   29.7249   -7.7791 C   0  0  0  0  0  0
  -37.8864   30.0856   -7.4285 C   0  0  0  0  0  0
  1 15  1  0  0  0
  1 10  1  0  0  0
  2  4  2  0  0  0
  2  6  1  0  0  0
  3  5  2  0  0  0
  3  8  1  0  0  0
  4  8  1  0  0  0
  5  7  1  0  0  0
  5  9  1  0  0  0
  6  8  2  0  0  0
  6  9  1  0  0  0
  7 10  1  0  0  0
  8  9  1  0  0  0
  9 10  1  0  0  0
 11 13  1  0  0  0
 11 14  1  0  0  0
 11 15  2  0  0  0
 12 13  2  0  0  0
 12 14  1  0  0  0
 12 16  1  0  0  0
 13 14  1  0  0  0
 13 15  1  0  0  0
 14 16  1  0  0  0
 16 17  1  0  0  0
 17 19  1  0  0  0
 18 19  1  0  0  0
M  END
> <s_m_entry_id>
54

> <s_m_entry_name>
NEW-hitrmd-var2_4_lig_gen_fit_add_gna.sdf.9

> <minimizedAffinity>
-8.0247

> <minimizedRMSD>
0.78385

> <CNNscore>
0.4470613599

> <CNNaffinity>
5.6793413162

> <CNN_VS>
2.539014101

> <CNNaffinity_variance>
0.1292583048

> <s_m_Source_Path>
C:\Users\maila\Downloads\mgr\NEW_model_var2_hitrmd

> <s_m_Source_File>
wzakresie-NEW-var2-hitrmd.mae

> <i_m_Source_File_Index>
11

> <s_user_SMILES>
CCCC1C=2C1([C]234)C4=C3CC5CC6=C[C]7(C568)=C8C=C7

> <s_m_subgroup_title>
wzakresie-NEW-var2-hitrmd->NEW-hitrmd-var2_4_lig_gen_fit_add_gna

> <s_m_subgroupid>
wzakresie-NEW-var2-hitrmd->NEW-hitrmd-var2_4_lig_gen_fit_add_gna

> <b_m_subgroup_collapsed>
0

$$$$
CC=1C2=C([C]123)C3=C=CC45C(C5)C4C=C=C6C=[C]7(C8)[C]6(=[C]789)C9
                    3D
 Schrodinger Suite 2021-1.
 21 29  0  0  1  0            999 V2000
   43.5903    9.9775   10.9682 C   0  0  0  0  0  0
   44.3164    8.6592   10.7902 C   0  0  0  0  0  0
   43.9778    9.5465    9.5707 C   0  0  0  0  0  0
   44.0261    8.0294    9.4264 C   0  0  0  0  0  0
   45.5486    2.0484    6.5168 C   0  0  0  0  0  0
   45.8658    4.6701    6.0982 C   0  0  0  0  0  0
   45.0365    5.3102    7.2264 C   0  0  0  0  0  0
   45.2357    3.0379    7.5922 C   0  0  0  0  0  0
   44.1980    4.0479    7.1322 C   0  0  0  0  0  0
   45.0425    3.4249    6.1144 C   0  0  0  0  0  0
   45.1638    7.5422    8.5728 C   0  0  0  0  0  0
   43.9069    3.0886    8.2858 C   0  0  0  0  0  0
   45.0733    6.4186    7.9151 C   0  0  0  0  0  0
   49.2598    9.4744    9.5611 C   0  0  0  0  0  0
   49.8237   10.3762    8.3996 C   0  0  0  0  0  0
   48.9490    8.0860    6.8969 C   0  0  0  0  0  0
   46.7843    9.1528   10.5787 C   0  0  0  0  0  0
   48.4636   10.1380    8.6689 C   0  0  0  0  0  0
   45.7625    8.7056   11.2677 C   0  0  0  0  0  0
   49.0787    9.1757    7.9159 C   0  0  0  0  0  0
   47.8199    9.5400    9.8879 C   0  0  0  0  0  0
  1  2  1  0  0  0
  1  3  1  0  0  0
  2 19  1  0  0  0
  2  3  1  0  0  0
  2  4  1  0  0  0
  3  4  1  0  0  0
  4 11  1  0  0  0
  5  8  1  0  0  0
  5 10  1  0  0  0
  6  7  1  0  0  0
  6 10  2  0  0  0
  7  9  1  0  0  0
  7 13  2  0  0  0
  8  9  2  0  0  0
  8 10  1  0  0  0
  8 12  1  0  0  0
  9 10  1  0  0  0
  9 12  1  0  0  0
 11 13  2  0  0  0
 14 15  2  0  0  0
 14 18  1  0  0  0
 14 21  1  0  0  0
 15 18  1  0  0  0
 15 20  1  0  0  0
 16 20  1  0  0  0
 17 19  2  0  0  0
 17 21  2  0  0  0
 18 20  2  0  0  0
 18 21  1  0  0  0
M  END
> <s_m_entry_id>
55

> <s_m_entry_name>
NEW-hitrmd-var2_15_lig_gen_fit_add_gna.sdf.2

> <minimizedAffinity>
-9.88427

> <minimizedRMSD>
0.3643

> <CNNscore>
0.1673800349

> <CNNaffinity>
5.7539291382

> <CNN_VS>
0.9630928636

> <CNNaffinity_variance>
0.1684845686

> <s_m_Source_Path>
C:\Users\maila\Downloads\mgr\NEW_model_var2_hitrmd

> <s_m_Source_File>
wzakresie-NEW-var2-hitrmd.mae

> <i_m_Source_File_Index>
12

> <s_user_SMILES>
CC=1C2=C([C]123)C3=C=CC45C(C5)C4C=C=C6C=[C]7(C8)[C]6(=[C]789)C9

> <s_m_subgroup_title>
wzakresie-NEW-var2-hitrmd->NEW-hitrmd-var2_15_lig_gen_fit_add_gna

> <s_m_subgroupid>
wzakresie-NEW-var2-hitrmd->NEW-hitrmd-var2_15_lig_gen_fit_add_gna

> <b_m_subgroup_collapsed>
0

$$$$
CC[C]=12C3=[C]2([C]134)C4C5C6C7C8C5(C678)CC9([C]1(=[C]239)C)C2=CC3=C1
                    3D
 Schrodinger Suite 2021-1.
 22 33  0  0  1  0            999 V2000
   42.7144    5.4268   12.0432 C   0  0  0  0  0  0
   42.9704    4.4043   10.9382 C   0  0  0  0  0  0
   42.8841    6.7678   11.3226 C   0  0  0  0  0  0
   43.3234    5.3204    9.7510 C   0  0  0  0  0  0
   42.1668    5.6150   10.6780 C   0  0  0  0  0  0
   43.9470    6.6519   10.2313 C   0  0  0  0  0  0
   46.1149    8.7936    9.8642 C   0  0  0  0  0  0
   45.2501    8.3240    8.7299 C   0  0  0  0  0  0
   44.6284    9.0549    9.9362 C   0  0  0  0  0  0
   43.9106    7.8667    9.2962 C   0  0  0  0  0  0
   45.3736    9.8071    8.9199 C   0  0  0  0  0  0
   47.5011    9.4400    9.6911 C   0  0  0  0  0  0
   48.4741    8.8124   10.6822 C   0  0  0  0  0  0
   42.8069    4.9968    8.3225 C   0  0  0  0  0  0
   44.5935    1.5690    7.6561 C   0  0  0  0  0  0
   44.0286    2.6198    8.0739 C   0  0  0  0  0  0
   45.7622    2.6580    7.3543 C   0  0  0  0  0  0
   45.4529    3.0422    6.0217 C   0  0  0  0  0  0
   44.8515    3.7906    7.9126 C   0  0  0  0  0  0
   44.6944    4.2733    6.5430 C   0  0  0  0  0  0
   43.5534    3.9215    7.4668 C   0  0  0  0  0  0
   45.3498    5.6484    6.4781 C   0  0  0  0  0  0
  1  2  1  0  0  0
  1  3  1  0  0  0
  1  5  1  0  0  0
  2  4  1  0  0  0
  2  5  1  0  0  0
  3  5  1  0  0  0
  3  6  1  0  0  0
  4 14  1  0  0  0
  4  5  1  0  0  0
  4  6  1  0  0  0
  6 10  1  0  0  0
  7 12  1  0  0  0
  7  8  2  0  0  0
  7  9  1  0  0  0
  7 11  1  0  0  0
  8  9  1  0  0  0
  8 10  1  0  0  0
  8 11  1  0  0  0
  9 10  1  0  0  0
  9 11  2  0  0  0
 12 13  1  0  0  0
 14 21  1  0  0  0
 15 16  2  0  0  0
 15 17  1  0  0  0
 16 19  1  0  0  0
 16 21  1  0  0  0
 17 18  2  0  0  0
 17 19  1  0  0  0
 18 20  1  0  0  0
 19 20  2  0  0  0
 19 21  1  0  0  0
 20 21  1  0  0  0
 20 22  1  0  0  0
M  END
> <s_m_entry_id>
56

> <s_m_entry_name>
NEW-hitrmd-var2_15_lig_gen_fit_add_gna.sdf.3

> <minimizedAffinity>
-8.7676

> <minimizedRMSD>
0.54917

> <CNNscore>
0.3363282681

> <CNNaffinity>
6.3945646286

> <CNN_VS>
2.1506729126

> <CNNaffinity_variance>
0.0385233462

> <s_m_Source_Path>
C:\Users\maila\Downloads\mgr\NEW_model_var2_hitrmd

> <s_m_Source_File>
wzakresie-NEW-var2-hitrmd.mae

> <i_m_Source_File_Index>
13

> <s_user_SMILES>
CC[C]=12C3=[C]2([C]134)C4C5C6C7C8C5(C678)CC9([C]1(=[C]239)C)C2=CC3=C1

> <s_m_subgroup_title>
wzakresie-NEW-var2-hitrmd->NEW-hitrmd-var2_15_lig_gen_fit_add_gna

> <s_m_subgroupid>
wzakresie-NEW-var2-hitrmd->NEW-hitrmd-var2_15_lig_gen_fit_add_gna

> <b_m_subgroup_collapsed>
0

$$$$
C1C2[C]=1([C]=234)[C]45=C3C5C6C(C678)C7C8C(C9)C1=C9C2=C([C]12=3)C3
                    3D
 Schrodinger Suite 2021-1.
 20 31  0  0  1  0            999 V2000
   47.6152    9.2579    7.9421 C   0  0  0  0  0  0
   45.3286    8.1292    8.2086 C   0  0  0  0  0  0
   46.7305   10.0402    8.9085 C   0  0  0  0  0  0
   46.6672    8.5003    8.8358 C   0  0  0  0  0  0
   45.4417    9.2900    9.1869 C   0  0  0  0  0  0
   41.9417    5.3271   10.7727 C   0  0  0  0  0  0
   43.1445    5.8104   10.3209 C   0  0  0  0  0  0
   43.1765    4.4244   10.1732 C   0  0  0  0  0  0
   42.6537    5.3588    9.1975 C   0  0  0  0  0  0
   42.7795    6.1784    8.1019 C   0  0  0  0  0  0
   44.7083    6.8526    8.7944 C   0  0  0  0  0  0
   44.2547    5.8994    7.7700 C   0  0  0  0  0  0
   43.2278    7.0321    9.2003 C   0  0  0  0  0  0
   49.9526    7.6053    6.9831 C   0  0  0  0  0  0
   51.6483    8.6211    5.4615 C   0  0  0  0  0  0
   50.1966    8.5684    5.9237 C   0  0  0  0  0  0
   51.1427    7.3525    6.0882 C   0  0  0  0  0  0
   49.9800    8.1431    8.3922 C   0  0  0  0  0  0
   50.1321    9.1439    7.3192 C   0  0  0  0  0  0
   49.0791    9.3958    8.3797 C   0  0  0  0  0  0
  1  3  1  0  0  0
  1 20  1  0  0  0
  1  4  1  0  0  0
  2 11  1  0  0  0
  2  4  1  0  0  0
  2  5  1  0  0  0
  3  4  1  0  0  0
  3  5  1  0  0  0
  4  5  1  0  0  0
  6  7  2  0  0  0
  6  8  1  0  0  0
  7  8  1  0  0  0
  7  9  1  0  0  0
  7 13  1  0  0  0
  8  9  2  0  0  0
  9 10  1  0  0  0
 10 12  1  0  0  0
 10 13  2  0  0  0
 11 12  1  0  0  0
 11 13  1  0  0  0
 14 16  1  0  0  0
 14 17  2  0  0  0
 14 18  1  0  0  0
 14 19  1  0  0  0
 15 16  2  0  0  0
 15 17  1  0  0  0
 16 17  1  0  0  0
 16 19  1  0  0  0
 18 19  2  0  0  0
 18 20  1  0  0  0
 19 20  1  0  0  0
M  END
> <s_m_entry_id>
57

> <s_m_entry_name>
NEW-hitrmd-var2_15_lig_gen_fit_add_gna.sdf.6

> <minimizedAffinity>
-8.86853

> <minimizedRMSD>
2.21318

> <CNNscore>
0.4474615455

> <CNNaffinity>
5.8064217567

> <CNN_VS>
2.5981504917

> <CNNaffinity_variance>
0.0970924869

> <s_m_Source_Path>
C:\Users\maila\Downloads\mgr\NEW_model_var2_hitrmd

> <s_m_Source_File>
wzakresie-NEW-var2-hitrmd.mae

> <i_m_Source_File_Index>
14

> <s_user_SMILES>
C1C2[C]=1([C]=234)[C]45=C3C5C6C(C678)C7C8C(C9)C1=C9C2=C([C]12=3)C3

> <s_m_subgroup_title>
wzakresie-NEW-var2-hitrmd->NEW-hitrmd-var2_15_lig_gen_fit_add_gna

> <s_m_subgroupid>
wzakresie-NEW-var2-hitrmd->NEW-hitrmd-var2_15_lig_gen_fit_add_gna

> <b_m_subgroup_collapsed>
0

$$$$
CC(=C12)C3=[C]4(C1=[C]234)C=CC5(CC)C=6C7=C[C]8(=C9)[C]17=[C]89[C]156
                    3D
 Schrodinger Suite 2021-1.
 20 29  0  0  1  0            999 V2000
  -20.9149   40.9712   -6.7990 C   0  0  0  0  0  0
  -21.7761   40.0178   -7.5987 C   0  0  0  0  0  0
  -20.3037   39.9999   -7.8290 C   0  0  0  0  0  0
  -20.1581   40.5461   -5.5750 C   0  0  0  0  0  0
  -18.8228   40.8929   -6.3185 C   0  0  0  0  0  0
  -19.0379   40.5092   -8.4638 C   0  0  0  0  0  0
  -17.4575   40.4177   -8.5173 C   0  0  0  0  0  0
  -19.6519   41.3819   -7.4546 C   0  0  0  0  0  0
  -18.1847   39.8851   -7.3341 C   0  0  0  0  0  0
  -16.4812   39.9162  -10.7865 C   0  0  0  0  0  0
  -16.9909   39.3120   -9.4823 C   0  0  0  0  0  0
  -15.5780   42.2483   -8.1510 C   0  0  0  0  0  0
  -16.2839   41.1425   -7.8633 C   0  0  0  0  0  0
  -14.1008   44.6578  -10.3850 C   0  0  0  0  0  0
  -15.4038   44.7559   -8.6245 C   0  0  0  0  0  0
  -14.7929   43.2700  -10.3968 C   0  0  0  0  0  0
  -16.0611   46.3231  -10.5686 C   0  0  0  0  0  0
  -15.6948   43.3359   -9.1655 C   0  0  0  0  0  0
  -14.3096   43.8523   -9.1336 C   0  0  0  0  0  0
  -14.9446   45.7461   -9.7044 C   0  0  0  0  0  0
  1  2  2  0  0  0
  1  3  1  0  0  0
  1  4  1  0  0  0
  1  8  1  0  0  0
  2  3  1  0  0  0
  3  6  1  0  0  0
  3  8  2  0  0  0
  4  5  2  0  0  0
  5  8  1  0  0  0
  5  9  1  0  0  0
  6  7  1  0  0  0
  6  8  1  0  0  0
  6  9  2  0  0  0
  7 11  1  0  0  0
  7 13  1  0  0  0
  7  9  1  0  0  0
 10 11  1  0  0  0
 12 18  1  0  0  0
 12 13  2  0  0  0
 14 16  1  0  0  0
 14 19  1  0  0  0
 14 20  2  0  0  0
 15 18  2  0  0  0
 15 19  1  0  0  0
 15 20  1  0  0  0
 16 18  1  0  0  0
 16 19  2  0  0  0
 17 20  1  0  0  0
 18 19  1  0  0  0
M  END
> <s_m_entry_id>
58

> <s_m_entry_name>
NEW-hitrmd-var2_16_lig_gen_fit_add_gna.sdf.10

> <minimizedAffinity>
-8.32919

> <minimizedRMSD>
0.67472

> <CNNscore>
0.3285264969

> <CNNaffinity>
5.8076553345

> <CNN_VS>
1.9079686403

> <CNNaffinity_variance>
0.060049545

> <s_m_Source_Path>
C:\Users\maila\Downloads\mgr\NEW_model_var2_hitrmd

> <s_m_Source_File>
wzakresie-NEW-var2-hitrmd.mae

> <i_m_Source_File_Index>
15

> <s_user_SMILES>
CC(=C12)C3=[C]4(C1=[C]234)C=CC5(CC)C=6C7=C[C]8(=C9)[C]17=[C]89[C]156

> <s_m_subgroup_title>
wzakresie-NEW-var2-hitrmd->NEW-hitrmd-var2_16_lig_gen_fit_add_gna

> <s_m_subgroupid>
wzakresie-NEW-var2-hitrmd->NEW-hitrmd-var2_16_lig_gen_fit_add_gna

> <b_m_subgroup_collapsed>
0

$$$$
C12=CC3=C[C]4(=C1C234)CC5C6(C578)C7(C68)[C]19=C2C9=C(C1)C=C2
                    3D
 Schrodinger Suite 2021-1.
 20 30  0  0  1  0            999 V2000
  -17.5062   39.4864  -11.4736 C   0  0  0  0  0  0
  -16.0685   39.8673  -11.7686 C   0  0  0  0  0  0
  -16.4954   39.5660  -10.3452 C   0  0  0  0  0  0
  -17.9201   39.9690  -10.0711 C   0  0  0  0  0  0
  -17.5727   38.4989  -10.3961 C   0  0  0  0  0  0
  -19.5551   40.9448   -6.1370 C   0  0  0  0  0  0
  -20.3599   40.1653   -6.9490 C   0  0  0  0  0  0
  -18.4145   41.2177   -6.9591 C   0  0  0  0  0  0
  -19.8358   39.9447   -8.4142 C   0  0  0  0  0  0
  -18.7936   40.9079   -8.0704 C   0  0  0  0  0  0
  -17.4778   40.0488   -7.4522 C   0  0  0  0  0  0
  -18.4439   39.6444   -8.6605 C   0  0  0  0  0  0
  -15.9138   41.3394  -12.1789 C   0  0  0  0  0  0
  -13.5848   43.9003   -9.5174 C   0  0  0  0  0  0
  -14.3047   44.2193  -10.5002 C   0  0  0  0  0  0
  -15.6075   43.7495  -11.0986 C   0  0  0  0  0  0
  -13.4804   42.5417  -10.4074 C   0  0  0  0  0  0
  -15.4608   42.2566  -11.0263 C   0  0  0  0  0  0
  -14.4131   43.1708  -11.4906 C   0  0  0  0  0  0
  -14.5637   41.7842   -9.8764 C   0  0  0  0  0  0
  1  2  1  0  0  0
  1  3  1  0  0  0
  1  4  1  0  0  0
  1  5  1  0  0  0
  2 13  1  0  0  0
  2  3  1  0  0  0
  3  4  1  0  0  0
  3  5  1  0  0  0
  4 12  1  0  0  0
  4  5  1  0  0  0
  6  7  2  0  0  0
  6  8  1  0  0  0
  7  9  1  0  0  0
  8 10  2  0  0  0
  8 11  1  0  0  0
  9 10  1  0  0  0
  9 12  2  0  0  0
 10 12  1  0  0  0
 11 12  1  0  0  0
 13 18  1  0  0  0
 14 15  2  0  0  0
 14 17  1  0  0  0
 15 16  1  0  0  0
 15 19  1  0  0  0
 16 18  2  0  0  0
 16 19  1  0  0  0
 17 19  1  0  0  0
 17 20  2  0  0  0
 18 19  1  0  0  0
 18 20  1  0  0  0
M  END
> <s_m_entry_id>
59

> <s_m_entry_name>
NEW-hitrmd-var2_17_lig_gen_fit_add_gna.sdf.4

> <minimizedAffinity>
-8.06343

> <minimizedRMSD>
1.27479

> <CNNscore>
0.3915483356

> <CNNaffinity>
5.9945783615

> <CNN_VS>
2.3471672535

> <CNNaffinity_variance>
0.0260969438

> <s_m_Source_Path>
C:\Users\maila\Downloads\mgr\NEW_model_var2_hitrmd

> <s_m_Source_File>
wzakresie-NEW-var2-hitrmd.mae

> <i_m_Source_File_Index>
16

> <s_user_SMILES>
C12=CC3=C[C]4(=C1C234)CC5C6(C578)C7(C68)[C]19=C2C9=C(C1)C=C2

> <s_m_subgroup_title>
wzakresie-NEW-var2-hitrmd->NEW-hitrmd-var2_17_lig_gen_fit_add_gna

> <s_m_subgroupid>
wzakresie-NEW-var2-hitrmd->NEW-hitrmd-var2_17_lig_gen_fit_add_gna

> <b_m_subgroup_collapsed>
0

$$$$
[C]12=3C(=C2)C1=CC3CCC4C(CC5)C45CC(=C6C)C(=[C]678)C7=C8
                    3D
 Schrodinger Suite 2021-1.
 21 28  0  0  1  0            999 V2000
  -15.6214   39.8020  -10.0805 C   0  0  0  0  0  0
  -15.7501   40.0472   -8.5849 C   0  0  0  0  0  0
  -17.0856   40.1069  -10.2760 C   0  0  0  0  0  0
  -17.2533   40.3963   -8.7804 C   0  0  0  0  0  0
  -16.3253   41.3402   -8.0404 C   0  0  0  0  0  0
  -18.2113   39.5167   -7.9496 C   0  0  0  0  0  0
  -19.8507   42.6771   -6.0773 C   0  0  0  0  0  0
  -21.7829   39.7173   -7.4056 C   0  0  0  0  0  0
  -19.8557   41.8278   -4.8764 C   0  0  0  0  0  0
  -20.7231   40.8302   -7.3640 C   0  0  0  0  0  0
  -19.2682   40.3404   -7.2703 C   0  0  0  0  0  0
  -19.5347   41.0181   -6.1785 C   0  0  0  0  0  0
  -20.7005   41.6373   -5.9608 C   0  0  0  0  0  0
  -16.1695   42.7081   -8.7067 C   0  0  0  0  0  0
  -14.7454   43.0782   -9.0843 C   0  0  0  0  0  0
  -16.1753   46.2173  -10.0567 C   0  0  0  0  0  0
  -16.1348   46.9810   -8.7847 C   0  0  0  0  0  0
  -13.8216   45.4057   -9.9373 C   0  0  0  0  0  0
  -15.5483   45.7448   -8.8842 C   0  0  0  0  0  0
  -14.6895   46.5243   -9.5456 C   0  0  0  0  0  0
  -14.6638   44.5692   -9.2711 C   0  0  0  0  0  0
  1  2  1  0  0  0
  1  3  1  0  0  0
  2  4  1  0  0  0
  2  5  1  0  0  0
  3  4  1  0  0  0
  4  6  1  0  0  0
  4  5  1  0  0  0
  5 14  1  0  0  0
  6 11  1  0  0  0
  7  9  2  0  0  0
  7 13  1  0  0  0
  8 10  1  0  0  0
  9 12  1  0  0  0
  9 13  1  0  0  0
 10 11  2  0  0  0
 10 13  1  0  0  0
 11 12  1  0  0  0
 12 13  2  0  0  0
 14 15  1  0  0  0
 15 21  1  0  0  0
 16 17  2  0  0  0
 16 19  1  0  0  0
 16 20  1  0  0  0
 17 19  1  0  0  0
 18 20  2  0  0  0
 18 21  1  0  0  0
 19 20  1  0  0  0
 19 21  2  0  0  0
M  END
> <s_m_entry_id>
60

> <s_m_entry_name>
NEW-hitrmd-var2_17_lig_gen_fit_add_gna.sdf.9

> <minimizedAffinity>
-8.86605

> <minimizedRMSD>
0.86355

> <CNNscore>
0.2793679237

> <CNNaffinity>
6.0111298561

> <CNN_VS>
1.6793168783

> <CNNaffinity_variance>
0.0820099786

> <s_m_Source_Path>
C:\Users\maila\Downloads\mgr\NEW_model_var2_hitrmd

> <s_m_Source_File>
wzakresie-NEW-var2-hitrmd.mae

> <i_m_Source_File_Index>
17

> <s_user_SMILES>
[C]12=3C(=C2)C1=CC3CCC4C(CC5)C45CC(=C6C)C(=[C]678)C7=C8

> <s_m_subgroup_title>
wzakresie-NEW-var2-hitrmd->NEW-hitrmd-var2_17_lig_gen_fit_add_gna

> <s_m_subgroupid>
wzakresie-NEW-var2-hitrmd->NEW-hitrmd-var2_17_lig_gen_fit_add_gna

> <b_m_subgroup_collapsed>
0

$$$$
[C]123=[C]45[C]3(=C4C5)[C]26[C]7(C1=6)=[C]89[C]1(C79)=[C]2(C=C18)C13C2C1C3
                    3D
 Schrodinger Suite 2021-1.
 18 30  0  0  1  0            999 V2000
  -19.3011   40.6807  -11.5467 C   0  0  0  0  0  0
  -18.5607   40.0688  -10.3692 C   0  0  0  0  0  0
  -20.2922   42.2681   -5.9495 C   0  0  0  0  0  0
  -19.8461   41.7598   -7.2889 C   0  0  0  0  0  0
  -18.3245   40.8728  -12.7186 C   0  0  0  0  0  0
  -17.2496   44.2140  -11.3677 C   0  0  0  0  0  0
  -15.8933   43.6477  -11.7674 C   0  0  0  0  0  0
  -21.7863   42.4466   -5.8766 C   0  0  0  0  0  0
  -21.1353   42.4277   -7.2461 C   0  0  0  0  0  0
  -21.1432   41.0162   -7.7965 C   0  0  0  0  0  0
  -17.4667   41.6737  -11.7760 C   0  0  0  0  0  0
  -19.8780   40.3004   -7.6633 C   0  0  0  0  0  0
  -19.1573   39.8861   -8.9639 C   0  0  0  0  0  0
  -17.1872   43.0508  -12.3034 C   0  0  0  0  0  0
  -16.0242   42.1227  -11.8974 C   0  0  0  0  0  0
  -18.4614   41.5814  -10.6636 C   0  0  0  0  0  0
  -20.6113   40.3438   -9.0263 C   0  0  0  0  0  0
  -18.1218   40.9911   -9.3141 C   0  0  0  0  0  0
  1  2  1  0  0  0
  1  5  2  0  0  0
  1 16  1  0  0  0
  2 13  2  0  0  0
  2 16  1  0  0  0
  2 18  1  0  0  0
  3  4  2  0  0  0
  3  8  1  0  0  0
  3  9  1  0  0  0
  4  9  1  0  0  0
  4 10  1  0  0  0
  4 12  1  0  0  0
  5 11  1  0  0  0
  6  7  1  0  0  0
  6 14  1  0  0  0
  7 14  1  0  0  0
  7 15  1  0  0  0
  8  9  1  0  0  0
  9 10  2  0  0  0
 10 12  1  0  0  0
 10 17  1  0  0  0
 11 14  1  0  0  0
 11 15  1  0  0  0
 11 16  2  0  0  0
 12 13  1  0  0  0
 12 17  2  0  0  0
 13 17  1  0  0  0
 13 18  1  0  0  0
 14 15  1  0  0  0
 16 18  1  0  0  0
M  END
> <s_m_entry_id>
61

> <s_m_entry_name>
NEW-hitrmd-var2_19_lig_gen_fit_add_gna.sdf.4

> <minimizedAffinity>
-8.9169

> <minimizedRMSD>
0.75461

> <CNNscore>
0.5415536761

> <CNNaffinity>
5.574944973

> <CNN_VS>
3.0191318989

> <CNNaffinity_variance>
0.6105769873

> <s_m_Source_Path>
C:\Users\maila\Downloads\mgr\NEW_model_var2_hitrmd

> <s_m_Source_File>
wzakresie-NEW-var2-hitrmd.mae

> <i_m_Source_File_Index>
18

> <s_user_SMILES>
[C]123=[C]45[C]3(=C4C5)[C]26[C]7(C1=6)=[C]89[C]1(C79)=[C]2(C=C18)C13C2C1C3

> <s_m_subgroup_title>
wzakresie-NEW-var2-hitrmd->NEW-hitrmd-var2_19_lig_gen_fit_add_gna

> <s_m_subgroupid>
wzakresie-NEW-var2-hitrmd->NEW-hitrmd-var2_19_lig_gen_fit_add_gna

> <b_m_subgroup_collapsed>
0

$$$$
C1CC12C=3C4=[C]5([C]234)C67C5C6C8=C9[C]1(=C78)[C]29=C1C2
                    3D
 Schrodinger Suite 2021-1.
 17 27  0  0  1  0            999 V2000
  -19.0301   40.8420   -7.6879 C   0  0  0  0  0  0
  -18.3518   40.5718  -12.0799 C   0  0  0  0  0  0
  -20.2873   41.5240   -8.1640 C   0  0  0  0  0  0
  -19.5569   40.8153  -12.9966 C   0  0  0  0  0  0
  -18.8430   41.0964  -10.7279 C   0  0  0  0  0  0
  -18.3106   41.5745  -13.2655 C   0  0  0  0  0  0
  -21.4761   41.5575   -7.2509 C   0  0  0  0  0  0
  -20.0059   40.0651   -8.5148 C   0  0  0  0  0  0
  -21.4295   40.5708   -8.4260 C   0  0  0  0  0  0
  -18.4099   44.1260  -14.0851 C   0  0  0  0  0  0
  -19.0376   39.9686   -9.7047 C   0  0  0  0  0  0
  -19.6248   42.1979  -13.5898 C   0  0  0  0  0  0
  -18.5395   43.0783  -12.9518 C   0  0  0  0  0  0
  -17.8239   41.7451   -9.8217 C   0  0  0  0  0  0
  -17.3588   41.2608  -11.1583 C   0  0  0  0  0  0
  -17.1866   43.6627  -13.4119 C   0  0  0  0  0  0
  -18.0069   40.6261   -8.8054 C   0  0  0  0  0  0
  1  3  1  0  0  0
  1  8  1  0  0  0
  1 17  2  0  0  0
  2  4  2  0  0  0
  2  5  1  0  0  0
  2  6  1  0  0  0
  2 15  1  0  0  0
  3  7  1  0  0  0
  3  8  1  0  0  0
  3  9  2  0  0  0
  4  6  1  0  0  0
  4 12  1  0  0  0
  5 11  1  0  0  0
  5 14  1  0  0  0
  5 15  1  0  0  0
  6 12  2  0  0  0
  6 13  1  0  0  0
  7  9  1  0  0  0
  8  9  1  0  0  0
  8 11  2  0  0  0
 10 13  1  0  0  0
 10 16  1  0  0  0
 11 17  1  0  0  0
 12 13  1  0  0  0
 13 16  1  0  0  0
 14 15  1  0  0  0
 14 17  1  0  0  0
M  END
> <s_m_entry_id>
62

> <s_m_entry_name>
NEW-hitrmd-var2_19_lig_gen_fit_add_gna.sdf.5

> <minimizedAffinity>
-8.7688

> <minimizedRMSD>
0.39343

> <CNNscore>
0.5330810547

> <CNNaffinity>
5.6876964569

> <CNN_VS>
3.0320031643

> <CNNaffinity_variance>
0.1823343337

> <s_m_Source_Path>
C:\Users\maila\Downloads\mgr\NEW_model_var2_hitrmd

> <s_m_Source_File>
wzakresie-NEW-var2-hitrmd.mae

> <i_m_Source_File_Index>
19

> <s_user_SMILES>
C1CC12C=3C4=[C]5([C]234)C67C5C6C8=C9[C]1(=C78)[C]29=C1C2

> <s_m_subgroup_title>
wzakresie-NEW-var2-hitrmd->NEW-hitrmd-var2_19_lig_gen_fit_add_gna

> <s_m_subgroupid>
wzakresie-NEW-var2-hitrmd->NEW-hitrmd-var2_19_lig_gen_fit_add_gna

> <b_m_subgroup_collapsed>
0

$$$$
[C]1=23C(C2)=C1C3CCC4(C5C6C78)C56C48C7([C]129)C=9[C]2=3C1=CC3
                    3D
 Schrodinger Suite 2021-1.
 20 31  0  0  1  0            999 V2000
  -20.2361   41.0132   -7.0987 C   0  0  0  0  0  0
  -19.4601   41.9439   -8.4083 C   0  0  0  0  0  0
  -20.3837   40.8705   -8.6425 C   0  0  0  0  0  0
  -18.3477   40.9498  -13.4222 C   0  0  0  0  0  0
  -20.1245   39.7742   -9.6007 C   0  0  0  0  0  0
  -19.0839   40.6806   -9.2218 C   0  0  0  0  0  0
  -18.8494   39.5364  -13.0781 C   0  0  0  0  0  0
  -17.6715   41.3731  -12.1312 C   0  0  0  0  0  0
  -19.4451   42.3742   -7.1960 C   0  0  0  0  0  0
  -17.9078   40.1679  -11.1820 C   0  0  0  0  0  0
  -17.5133   40.0158  -12.6485 C   0  0  0  0  0  0
  -19.1089   39.3260  -11.5903 C   0  0  0  0  0  0
  -19.3546   40.5319  -10.7224 C   0  0  0  0  0  0
  -16.2700   41.9955  -12.2279 C   0  0  0  0  0  0
  -16.1754   43.2037  -11.3229 C   0  0  0  0  0  0
  -17.8709   45.3505  -11.3404 C   0  0  0  0  0  0
  -18.4203   46.3385  -12.0687 C   0  0  0  0  0  0
  -17.1450   44.2824  -11.7203 C   0  0  0  0  0  0
  -17.1059   45.8316  -12.3290 C   0  0  0  0  0  0
  -18.3172   44.7147  -12.4301 C   0  0  0  0  0  0
  1  3  2  0  0  0
  1  9  1  0  0  0
  2  3  1  0  0  0
  2  6  1  0  0  0
  2  9  2  0  0  0
  3  5  1  0  0  0
  3  6  1  0  0  0
  4  7  1  0  0  0
  4  8  1  0  0  0
  4 11  1  0  0  0
  5  6  2  0  0  0
  5 13  1  0  0  0
  6 13  1  0  0  0
  7 11  1  0  0  0
  7 12  1  0  0  0
  8 14  1  0  0  0
  8 10  1  0  0  0
  8 11  1  0  0  0
 10 11  1  0  0  0
 10 12  1  0  0  0
 10 13  1  0  0  0
 12 13  1  0  0  0
 14 15  1  0  0  0
 15 18  1  0  0  0
 16 17  2  0  0  0
 16 18  1  0  0  0
 16 19  1  0  0  0
 16 20  1  0  0  0
 17 19  1  0  0  0
 18 20  1  0  0  0
 19 20  2  0  0  0
M  END
> <s_m_entry_id>
63

> <s_m_entry_name>
NEW-hitrmd-var2_27_lig_gen_fit_add_gna.sdf.2

> <minimizedAffinity>
-8.01802

> <minimizedRMSD>
0.82537

> <CNNscore>
0.3227344453

> <CNNaffinity>
5.8289480209

> <CNN_VS>
1.8812023401

> <CNNaffinity_variance>
0.0924714953

> <s_m_Source_Path>
C:\Users\maila\Downloads\mgr\NEW_model_var2_hitrmd

> <s_m_Source_File>
wzakresie-NEW-var2-hitrmd.mae

> <i_m_Source_File_Index>
20

> <s_user_SMILES>
[C]1=23C(C2)=C1C3CCC4(C5C6C78)C56C48C7([C]129)C=9[C]2=3C1=CC3

> <s_m_subgroup_title>
wzakresie-NEW-var2-hitrmd->NEW-hitrmd-var2_27_lig_gen_fit_add_gna

> <s_m_subgroupid>
wzakresie-NEW-var2-hitrmd->NEW-hitrmd-var2_27_lig_gen_fit_add_gna

> <b_m_subgroup_collapsed>
0

$$$$
C1C2=[C]13[C]4(=[C]235)C5C4CC6C(C678)C7C(C8)C9C(=[C]129)C1=C1C2C1
                    3D
 Schrodinger Suite 2021-1.
 21 32  0  0  1  0            999 V2000
  -18.6522   41.8461   -9.6044 C   0  0  0  0  0  0
  -18.3561   40.7251  -11.7428 C   0  0  0  0  0  0
  -18.9713   40.6821   -8.7023 C   0  0  0  0  0  0
  -19.2245   39.6816  -11.0949 C   0  0  0  0  0  0
  -19.8466   40.0730   -9.7758 C   0  0  0  0  0  0
  -19.4265   41.1848  -10.7551 C   0  0  0  0  0  0
  -20.9780   42.2055   -6.0391 C   0  0  0  0  0  0
  -22.2060   42.8355   -6.3515 C   0  0  0  0  0  0
  -21.8138   41.8657   -7.6894 C   0  0  0  0  0  0
  -20.9437   41.4296   -6.7181 C   0  0  0  0  0  0
  -19.7879   42.3959   -6.9195 C   0  0  0  0  0  0
  -19.5311   40.9680   -7.2777 C   0  0  0  0  0  0
  -22.2835   41.3365   -6.3828 C   0  0  0  0  0  0
  -18.6384   41.1700  -13.1815 C   0  0  0  0  0  0
  -15.4216   44.7518  -13.0447 C   0  0  0  0  0  0
  -17.4810   43.4061  -12.4333 C   0  0  0  0  0  0
  -16.9067   44.6386  -13.1147 C   0  0  0  0  0  0
  -16.0714   43.6908  -12.1812 C   0  0  0  0  0  0
  -17.6883   42.3354  -13.5022 C   0  0  0  0  0  0
  -16.3203   45.9760  -12.7728 C   0  0  0  0  0  0
  -16.4081   42.3192  -12.6909 C   0  0  0  0  0  0
  1  3  1  0  0  0
  1  6  1  0  0  0
  2 14  1  0  0  0
  2  4  1  0  0  0
  2  6  1  0  0  0
  3 12  1  0  0  0
  3  5  1  0  0  0
  4  5  1  0  0  0
  4  6  1  0  0  0
  5  6  1  0  0  0
  7  8  2  0  0  0
  7 10  1  0  0  0
  7 11  1  0  0  0
  8  9  1  0  0  0
  8 13  1  0  0  0
  9 10  1  0  0  0
  9 13  1  0  0  0
 10 11  2  0  0  0
 10 12  1  0  0  0
 11 12  1  0  0  0
 14 19  1  0  0  0
 15 17  2  0  0  0
 15 18  1  0  0  0
 15 20  1  0  0  0
 16 17  1  0  0  0
 16 18  2  0  0  0
 16 19  1  0  0  0
 16 21  1  0  0  0
 17 18  1  0  0  0
 17 20  1  0  0  0
 18 21  1  0  0  0
 19 21  1  0  0  0
M  END
> <s_m_entry_id>
64

> <s_m_entry_name>
NEW-hitrmd-var2_27_lig_gen_fit_add_gna.sdf.3

> <minimizedAffinity>
-8.48546

> <minimizedRMSD>
1.24814

> <CNNscore>
0.3470566273

> <CNNaffinity>
5.9696321487

> <CNN_VS>
2.0718004704

> <CNNaffinity_variance>
0.0990542173

> <s_m_Source_Path>
C:\Users\maila\Downloads\mgr\NEW_model_var2_hitrmd

> <s_m_Source_File>
wzakresie-NEW-var2-hitrmd.mae

> <i_m_Source_File_Index>
21

> <s_user_SMILES>
C1C2=[C]13[C]4(=[C]235)C5C4CC6C(C678)C7C(C8)C9C(=[C]129)C1=C1C2C1

> <s_m_subgroup_title>
wzakresie-NEW-var2-hitrmd->NEW-hitrmd-var2_27_lig_gen_fit_add_gna

> <s_m_subgroupid>
wzakresie-NEW-var2-hitrmd->NEW-hitrmd-var2_27_lig_gen_fit_add_gna

> <b_m_subgroup_collapsed>
0

$$$$
C1C2=C([C]=123)C3=C=C(C4)C(C5CC67)C45C78C69[C]1([C]289)=[C]34C(C1=2)=C3C4
                    3D
 Schrodinger Suite 2021-1.
 22 34  0  0  1  0            999 V2000
  -20.2798   41.9285   -6.5636 C   0  0  0  0  0  0
  -21.6881   41.5422   -6.1896 C   0  0  0  0  0  0
  -15.9709   48.0318  -11.3559 C   0  0  0  0  0  0
  -21.3334   41.9017   -7.6599 C   0  0  0  0  0  0
  -19.4228   40.9700   -7.3801 C   0  0  0  0  0  0
  -19.4939   39.8530  -10.5410 C   0  0  0  0  0  0
  -16.6152   47.3672  -12.3605 C   0  0  0  0  0  0
  -16.6820   42.4928  -10.6662 C   0  0  0  0  0  0
  -17.0451   48.6915  -12.1526 C   0  0  0  0  0  0
  -19.1507   41.5746   -8.7372 C   0  0  0  0  0  0
  -17.2244   44.7786  -11.7591 C   0  0  0  0  0  0
  -19.2645   40.0386  -12.0529 C   0  0  0  0  0  0
  -20.4885   40.8573   -8.3895 C   0  0  0  0  0  0
  -17.7293   41.4660  -10.8799 C   0  0  0  0  0  0
  -20.0200   41.0780   -9.8196 C   0  0  0  0  0  0
  -18.4200   42.4716  -11.7865 C   0  0  0  0  0  0
  -17.5399   47.4251  -11.3558 C   0  0  0  0  0  0
  -22.6629   41.2934   -7.3083 C   0  0  0  0  0  0
  -18.5105   40.7076   -9.7953 C   0  0  0  0  0  0
  -18.1316   41.0531  -12.2601 C   0  0  0  0  0  0
  -17.2962   43.4845  -11.6306 C   0  0  0  0  0  0
  -17.1743   46.0769  -11.8385 C   0  0  0  0  0  0
  1  2  2  0  0  0
  1  4  1  0  0  0
  1  5  1  0  0  0
  2  4  1  0  0  0
  2 18  1  0  0  0
  3  7  2  0  0  0
  3  9  1  0  0  0
  4 13  2  0  0  0
  4 18  1  0  0  0
  5 10  2  0  0  0
  5 13  1  0  0  0
  6 12  1  0  0  0
  6 15  1  0  0  0
  6 19  1  0  0  0
  7  9  1  0  0  0
  7 17  1  0  0  0
  7 22  1  0  0  0
  8 14  1  0  0  0
  8 21  1  0  0  0
  9 17  2  0  0  0
 10 13  1  0  0  0
 10 15  1  0  0  0
 10 19  1  0  0  0
 11 21  2  0  0  0
 11 22  2  0  0  0
 12 20  1  0  0  0
 13 15  1  0  0  0
 14 16  1  0  0  0
 14 19  1  0  0  0
 14 20  1  0  0  0
 15 19  1  0  0  0
 16 20  1  0  0  0
 16 21  1  0  0  0
 17 22  1  0  0  0
M  END
> <s_m_entry_id>
65

> <s_m_entry_name>
NEW-hitrmd-var2_27_lig_gen_fit_add_gna.sdf.4

> <minimizedAffinity>
-10.43475

> <minimizedRMSD>
0.3511

> <CNNscore>
0.4426790178

> <CNNaffinity>
5.9934811592

> <CNN_VS>
2.653188467

> <CNNaffinity_variance>
0.1398415267

> <s_m_Source_Path>
C:\Users\maila\Downloads\mgr\NEW_model_var2_hitrmd

> <s_m_Source_File>
wzakresie-NEW-var2-hitrmd.mae

> <i_m_Source_File_Index>
22

> <s_user_SMILES>
C1C2=C([C]=123)C3=C=C(C4)C(C5CC67)C45C78C69[C]1([C]289)=[C]34C(C1=2)=C3C4

> <s_m_subgroup_title>
wzakresie-NEW-var2-hitrmd->NEW-hitrmd-var2_27_lig_gen_fit_add_gna

> <s_m_subgroupid>
wzakresie-NEW-var2-hitrmd->NEW-hitrmd-var2_27_lig_gen_fit_add_gna

> <b_m_subgroup_collapsed>
0

$$$$
[C]123C(=C2)C3C=1C#CC4(C5CC6C78)C56C47C9=[C]18[C]2(=[C]139)[C]13=C2C1
                    3D
 Schrodinger Suite 2021-1.
 21 33  0  0  1  0            999 V2000
  -19.6186   41.3748   -7.4497 C   0  0  0  0  0  0
  -21.0713   41.0202   -7.2868 C   0  0  0  0  0  0
  -19.3741   41.8187   -8.8601 C   0  0  0  0  0  0
  -20.4121   40.8042   -8.6559 C   0  0  0  0  0  0
  -19.2094   40.3774   -9.4736 C   0  0  0  0  0  0
  -18.1445   41.4419   -9.6337 C   0  0  0  0  0  0
  -18.0030   41.8636  -12.4937 C   0  0  0  0  0  0
  -18.6444   39.5405  -13.3247 C   0  0  0  0  0  0
  -17.4838   40.5947  -11.8474 C   0  0  0  0  0  0
  -17.6372   40.6778  -13.3614 C   0  0  0  0  0  0
  -19.4697   40.3642  -10.9953 C   0  0  0  0  0  0
  -18.4951   41.4867  -11.1107 C   0  0  0  0  0  0
  -18.5186   39.4756  -11.8091 C   0  0  0  0  0  0
  -20.4948   42.2469   -6.6036 C   0  0  0  0  0  0
  -16.3101   43.9176  -12.5020 C   0  0  0  0  0  0
  -17.0051   42.9335  -12.5064 C   0  0  0  0  0  0
  -15.7005   46.7122  -11.8680 C   0  0  0  0  0  0
  -14.3948   47.2651  -12.0813 C   0  0  0  0  0  0
  -14.6110   45.9391  -11.9685 C   0  0  0  0  0  0
  -15.5871   45.1680  -12.4878 C   0  0  0  0  0  0
  -14.9381   46.2053  -13.2395 C   0  0  0  0  0  0
  1  2  2  0  0  0
  1  3  1  0  0  0
  1  4  1  0  0  0
  1 14  1  0  0  0
  2  4  1  0  0  0
  2 14  1  0  0  0
  3  4  2  0  0  0
  3  5  1  0  0  0
  3  6  1  0  0  0
  4  5  1  0  0  0
  5  6  2  0  0  0
  5 11  1  0  0  0
  6 12  1  0  0  0
  7  9  1  0  0  0
  7 10  1  0  0  0
  7 12  1  0  0  0
  7 16  1  0  0  0
  8 10  1  0  0  0
  8 13  1  0  0  0
  9 10  1  0  0  0
  9 12  1  0  0  0
  9 13  1  0  0  0
 11 12  1  0  0  0
 11 13  1  0  0  0
 15 20  1  0  0  0
 15 16  3  0  0  0
 17 18  2  0  0  0
 17 19  1  0  0  0
 17 21  1  0  0  0
 18 19  1  0  0  0
 19 20  2  0  0  0
 19 21  1  0  0  0
 20 21  1  0  0  0
M  END
> <s_m_entry_id>
66

> <s_m_entry_name>
NEW-hitrmd-var2_27_lig_gen_fit_add_gna.sdf.9

> <minimizedAffinity>
-8.19372

> <minimizedRMSD>
0.5498

> <CNNscore>
0.493342042

> <CNNaffinity>
5.7971906662

> <CNN_VS>
2.8599979877

> <CNNaffinity_variance>
0.0883006081

> <s_m_Source_Path>
C:\Users\maila\Downloads\mgr\NEW_model_var2_hitrmd

> <s_m_Source_File>
wzakresie-NEW-var2-hitrmd.mae

> <i_m_Source_File_Index>
23

> <s_user_SMILES>
[C]123C(=C2)C3C=1C#CC4(C5CC6C78)C56C47C9=[C]18[C]2(=[C]139)[C]13=C2C1

> <s_m_subgroup_title>
wzakresie-NEW-var2-hitrmd->NEW-hitrmd-var2_27_lig_gen_fit_add_gna

> <s_m_subgroupid>
wzakresie-NEW-var2-hitrmd->NEW-hitrmd-var2_27_lig_gen_fit_add_gna

> <b_m_subgroup_collapsed>
0

$$$$
CC1=C2C3([C]124)C=4C3CC5C(C5)C6C7C68C79[C]8(C129)=[C]23C1=C3
                    3D
 Schrodinger Suite 2021-1.
 20 31  0  0  1  0            999 V2000
  -18.3919   39.5945  -13.3537 C   0  0  0  0  0  0
  -19.0778   40.9445  -13.2216 C   0  0  0  0  0  0
  -19.1442   39.9393  -12.0703 C   0  0  0  0  0  0
  -17.0667   46.6123  -11.4783 C   0  0  0  0  0  0
  -18.4741   46.6970  -11.9744 C   0  0  0  0  0  0
  -17.7029   44.2905  -12.0334 C   0  0  0  0  0  0
  -17.9504   45.5736  -11.2908 C   0  0  0  0  0  0
  -18.1028   42.1228  -13.1163 C   0  0  0  0  0  0
  -17.6028   45.5556  -12.6604 C   0  0  0  0  0  0
  -18.3904   43.2687  -14.0585 C   0  0  0  0  0  0
  -18.5596   44.5761  -13.3239 C   0  0  0  0  0  0
  -18.7751   43.3604  -12.5532 C   0  0  0  0  0  0
  -18.2655   40.0977  -10.8226 C   0  0  0  0  0  0
  -18.4516   41.2597   -8.5494 C   0  0  0  0  0  0
  -19.6445   40.5161   -8.0115 C   0  0  0  0  0  0
  -19.7855   41.3935   -9.0809 C   0  0  0  0  0  0
  -18.6034   41.3729  -10.0526 C   0  0  0  0  0  0
  -21.7298   41.9771   -7.0354 C   0  0  0  0  0  0
  -20.6491   40.0974   -8.9156 C   0  0  0  0  0  0
  -20.8550   41.1426   -7.8705 C   0  0  0  0  0  0
  1  2  1  0  0  0
  1  3  1  0  0  0
  2  8  1  0  0  0
  2  3  1  0  0  0
  3 13  1  0  0  0
  4  5  2  0  0  0
  4  7  1  0  0  0
  5  7  1  0  0  0
  5  9  1  0  0  0
  6  7  2  0  0  0
  6  9  1  0  0  0
  6 11  1  0  0  0
  6 12  1  0  0  0
  7  9  1  0  0  0
  8 10  1  0  0  0
  8 12  1  0  0  0
  9 11  1  0  0  0
 10 11  1  0  0  0
 10 12  1  0  0  0
 11 12  1  0  0  0
 13 17  1  0  0  0
 14 15  2  0  0  0
 14 16  1  0  0  0
 14 17  1  0  0  0
 15 16  1  0  0  0
 15 19  1  0  0  0
 15 20  1  0  0  0
 16 17  1  0  0  0
 16 19  1  0  0  0
 18 20  1  0  0  0
 19 20  2  0  0  0
M  END
> <s_m_entry_id>
67

> <s_m_entry_name>
NEW-hitrmd-var2_27_lig_gen_fit_add_gna.sdf.10

> <minimizedAffinity>
-8.43837

> <minimizedRMSD>
1.61106

> <CNNscore>
0.4516069293

> <CNNaffinity>
6.117582798

> <CNN_VS>
2.7627427578

> <CNNaffinity_variance>
0.0315714665

> <s_m_Source_Path>
C:\Users\maila\Downloads\mgr\NEW_model_var2_hitrmd

> <s_m_Source_File>
wzakresie-NEW-var2-hitrmd.mae

> <i_m_Source_File_Index>
24

> <s_user_SMILES>
CC1=C2C3([C]124)C=4C3CC5C(C5)C6C7C68C79[C]8(C129)=[C]23C1=C3

> <s_m_subgroup_title>
wzakresie-NEW-var2-hitrmd->NEW-hitrmd-var2_27_lig_gen_fit_add_gna

> <s_m_subgroupid>
wzakresie-NEW-var2-hitrmd->NEW-hitrmd-var2_27_lig_gen_fit_add_gna

> <b_m_subgroup_collapsed>
0

$$$$
C1CC1C2[C]34=[C]5([C]=24[C]35=6)C6C(C7)C78[C]9([C]1=28)=[C]1(C2)C9
                    3D
 Schrodinger Suite 2021-1.
 17 27  0  0  1  0            999 V2000
  -19.1083   40.4737   -9.4214 C   0  0  0  0  0  0
  -17.2034   41.6878  -10.4518 C   0  0  0  0  0  0
  -18.7055   41.5376  -10.4154 C   0  0  0  0  0  0
  -17.9347   40.9442  -11.5692 C   0  0  0  0  0  0
  -17.8078   40.3272  -10.1941 C   0  0  0  0  0  0
  -16.7477   41.8310  -11.8890 C   0  0  0  0  0  0
  -22.6395   40.9767   -7.4651 C   0  0  0  0  0  0
  -21.4199   41.7666   -7.5378 C   0  0  0  0  0  0
  -22.3361   42.0077   -6.3448 C   0  0  0  0  0  0
  -19.0649   42.1646   -7.4457 C   0  0  0  0  0  0
  -21.4463   43.0943   -5.6827 C   0  0  0  0  0  0
  -18.8684   40.7964   -7.9436 C   0  0  0  0  0  0
  -20.1648   41.1308   -7.1837 C   0  0  0  0  0  0
  -20.9084   41.7391   -6.0249 C   0  0  0  0  0  0
  -17.1771   43.1062  -12.6366 C   0  0  0  0  0  0
  -16.9663   44.4558  -11.9509 C   0  0  0  0  0  0
  -16.0083   43.9960  -13.0326 C   0  0  0  0  0  0
  1 12  1  0  0  0
  1  3  2  0  0  0
  1  5  1  0  0  0
  2  3  1  0  0  0
  2  4  1  0  0  0
  2  5  2  0  0  0
  2  6  1  0  0  0
  3  4  1  0  0  0
  3  5  1  0  0  0
  4  5  1  0  0  0
  4  6  2  0  0  0
  6 15  1  0  0  0
  7  8  2  0  0  0
  7  9  1  0  0  0
  8  9  1  0  0  0
  8 13  1  0  0  0
  8 14  1  0  0  0
  9 11  1  0  0  0
  9 14  2  0  0  0
 10 12  1  0  0  0
 10 13  1  0  0  0
 11 14  1  0  0  0
 12 13  1  0  0  0
 13 14  1  0  0  0
 15 16  1  0  0  0
 15 17  1  0  0  0
 16 17  1  0  0  0
M  END
> <s_m_entry_id>
68

> <s_m_entry_name>
NEW-hitrmd-var2_32_lig_gen_fit_add_gna.sdf.10

> <minimizedAffinity>
-8.22755

> <minimizedRMSD>
0.48991

> <CNNscore>
0.5674500465

> <CNNaffinity>
5.793507576

> <CNN_VS>
3.2875261307

> <CNNaffinity_variance>
0.1348706633

> <s_m_Source_Path>
C:\Users\maila\Downloads\mgr\NEW_model_var2_hitrmd

> <s_m_Source_File>
wzakresie-NEW-var2-hitrmd.mae

> <i_m_Source_File_Index>
25

> <s_user_SMILES>
C1CC1C2[C]34=[C]5([C]=24[C]35=6)C6C(C7)C78[C]9([C]1=28)=[C]1(C2)C9

> <s_m_subgroup_title>
wzakresie-NEW-var2-hitrmd->NEW-hitrmd-var2_32_lig_gen_fit_add_gna

> <s_m_subgroupid>
wzakresie-NEW-var2-hitrmd->NEW-hitrmd-var2_32_lig_gen_fit_add_gna

> <b_m_subgroup_collapsed>
0

$$$$
C1=C2[C]1(C234)=C3C5=C4C5CC(=C6)C67C89C7C9C8C
                    3D
 Schrodinger Suite 2021-1.
 17 25  0  0  1  0            999 V2000
  -18.9039   40.0850  -10.0308 C   0  0  0  0  0  0
  -19.8511   41.3163  -12.0716 C   0  0  0  0  0  0
  -19.3596   40.0283  -11.5105 C   0  0  0  0  0  0
  -17.2999   42.7987  -11.6300 C   0  0  0  0  0  0
  -16.7086   44.1393  -12.0475 C   0  0  0  0  0  0
  -17.5604   41.8290  -12.7761 C   0  0  0  0  0  0
  -18.6040   40.6726  -12.7288 C   0  0  0  0  0  0
  -16.3490   41.6381  -11.8574 C   0  0  0  0  0  0
  -17.1199   40.4468  -12.3868 C   0  0  0  0  0  0
  -20.1094   42.3257   -7.0305 C   0  0  0  0  0  0
  -22.3565   43.0009   -6.6383 C   0  0  0  0  0  0
  -21.4117   42.1126   -7.7149 C   0  0  0  0  0  0
  -22.6239   41.5491   -6.8641 C   0  0  0  0  0  0
  -21.4152   42.0522   -6.3233 C   0  0  0  0  0  0
  -19.4790   41.1626   -7.7785 C   0  0  0  0  0  0
  -20.8015   40.9253   -8.4715 C   0  0  0  0  0  0
  -19.5572   41.2508   -9.2836 C   0  0  0  0  0  0
  1  3  1  0  0  0
  1 17  1  0  0  0
  2  3  2  0  0  0
  2  7  1  0  0  0
  3  7  1  0  0  0
  4  5  1  0  0  0
  4  6  1  0  0  0
  4  8  1  0  0  0
  6  7  1  0  0  0
  6  8  1  0  0  0
  6  9  1  0  0  0
  7  9  1  0  0  0
  8  9  1  0  0  0
 10 12  1  0  0  0
 10 14  2  0  0  0
 10 15  1  0  0  0
 11 13  2  0  0  0
 11 14  1  0  0  0
 12 13  1  0  0  0
 12 14  1  0  0  0
 12 16  1  0  0  0
 13 14  1  0  0  0
 15 16  2  0  0  0
 15 17  1  0  0  0
 16 17  1  0  0  0
M  END
> <s_m_entry_id>
69

> <s_m_entry_name>
NEW-hitrmd-var2_35_lig_gen_fit_add_gna.sdf.7

> <minimizedAffinity>
-8.36955

> <minimizedRMSD>
0.95608

> <CNNscore>
0.6512660384

> <CNNaffinity>
5.7409515381

> <CNN_VS>
3.7388868332

> <CNNaffinity_variance>
0.2249707729

> <s_m_Source_Path>
C:\Users\maila\Downloads\mgr\NEW_model_var2_hitrmd

> <s_m_Source_File>
wzakresie-NEW-var2-hitrmd.mae

> <i_m_Source_File_Index>
26

> <s_user_SMILES>
C1=C2[C]1(C234)=C3C5=C4C5CC(=C6)C67C89C7C9C8C

> <s_m_subgroup_title>
wzakresie-NEW-var2-hitrmd->NEW-hitrmd-var2_35_lig_gen_fit_add_gna

> <s_m_subgroupid>
wzakresie-NEW-var2-hitrmd->NEW-hitrmd-var2_35_lig_gen_fit_add_gna

> <b_m_subgroup_collapsed>
0

$$$$
C12CC3C2C13C=CCC4CC5C4C6=[C]57[C]=8([C]679)C=9C8
                    3D
 Schrodinger Suite 2021-1.
 18 26  0  0  1  0            999 V2000
  -32.8870   10.5622   -7.0969 C   0  0  0  0  0  0
  -33.9634    9.8516   -6.5843 C   0  0  0  0  0  0
  -33.0402    9.9849   -5.5654 C   0  0  0  0  0  0
  -32.7792    9.1031   -6.8482 C   0  0  0  0  0  0
  -34.4027    9.6163   -5.1411 C   0  0  0  0  0  0
  -33.2631    9.1628   -4.2885 C   0  0  0  0  0  0
  -35.9962   10.0895   -3.1965 C   0  0  0  0  0  0
  -34.9938    9.2724   -2.3794 C   0  0  0  0  0  0
  -33.8455    9.9627   -3.1350 C   0  0  0  0  0  0
  -34.8510   10.6014   -4.0761 C   0  0  0  0  0  0
  -35.0199    9.4822   -0.8595 C   0  0  0  0  0  0
  -33.7358    9.0286   -0.2042 C   0  0  0  0  0  0
  -33.2220    7.7871   -0.2871 C   0  0  0  0  0  0
  -34.9114    5.6246   -0.6202 C   0  0  0  0  0  0
  -34.7114    4.8382   -1.9606 C   0  0  0  0  0  0
  -33.4391    5.4204   -0.4271 C   0  0  0  0  0  0
  -33.3083    5.5355   -1.9171 C   0  0  0  0  0  0
  -33.8824    6.6595   -1.0591 C   0  0  0  0  0  0
  1  2  2  0  0  0
  1  4  1  0  0  0
  2  3  1  0  0  0
  2  4  1  0  0  0
  2  5  1  0  0  0
  3  4  2  0  0  0
  3  5  1  0  0  0
  3  6  1  0  0  0
  5  6  2  0  0  0
  5 10  1  0  0  0
  6  9  1  0  0  0
  7  8  1  0  0  0
  7 10  1  0  0  0
  8 11  1  0  0  0
  8  9  1  0  0  0
  9 10  1  0  0  0
 11 12  1  0  0  0
 12 13  2  0  0  0
 13 18  1  0  0  0
 14 15  1  0  0  0
 14 16  1  0  0  0
 14 18  1  0  0  0
 15 17  1  0  0  0
 16 17  1  0  0  0
 16 18  1  0  0  0
 17 18  1  0  0  0
M  END
> <s_m_entry_id>
70

> <s_m_entry_name>
NEW-hitrmd-var2_41_lig_gen_fit_add_gna.sdf.2

> <minimizedAffinity>
-8.92077

> <minimizedRMSD>
0.58712

> <CNNscore>
0.3518919647

> <CNNaffinity>
6.1770300865

> <CNN_VS>
2.1736471653

> <CNNaffinity_variance>
0.0939522386

> <s_m_Source_Path>
C:\Users\maila\Downloads\mgr\NEW_model_var2_hitrmd

> <s_m_Source_File>
wzakresie-NEW-var2-hitrmd.mae

> <i_m_Source_File_Index>
27

> <s_user_SMILES>
C12CC3C2C13C=CCC4CC5C4C6=[C]57[C]=8([C]679)C=9C8

> <s_m_subgroup_title>
wzakresie-NEW-var2-hitrmd->NEW-hitrmd-var2_41_lig_gen_fit_add_gna

> <s_m_subgroupid>
wzakresie-NEW-var2-hitrmd->NEW-hitrmd-var2_41_lig_gen_fit_add_gna

> <b_m_subgroup_collapsed>
0

$$$$
C1C2=[C]13C4=C5C6C7([C]68=[C]45C238)C9C7CC9C(C1)C12C1C2C1
                    3D
 Schrodinger Suite 2021-1.
 20 31  0  0  1  0            999 V2000
  -34.7119   10.2903   -4.7762 C   0  0  0  0  0  0
  -34.3767   10.3544   -7.6179 C   0  0  0  0  0  0
  -34.0222    9.4871   -5.4775 C   0  0  0  0  0  0
  -33.4940    9.3587   -6.8237 C   0  0  0  0  0  0
  -34.9003    9.6511   -6.3741 C   0  0  0  0  0  0
  -33.1054    9.7944   -8.2160 C   0  0  0  0  0  0
  -35.7457   10.0260   -2.6459 C   0  0  0  0  0  0
  -34.7708    9.3061   -3.6051 C   0  0  0  0  0  0
  -33.4091    9.8905   -4.1869 C   0  0  0  0  0  0
  -35.2606    8.4473   -1.2517 C   0  0  0  0  0  0
  -36.5496    9.1102   -1.7235 C   0  0  0  0  0  0
  -32.8991   10.2913   -5.7089 C   0  0  0  0  0  0
  -32.8153    8.8784   -5.3820 C   0  0  0  0  0  0
  -34.4874    9.4418   -2.0954 C   0  0  0  0  0  0
  -33.1189    4.2474   -2.1569 C   0  0  0  0  0  0
  -32.9253    5.6986   -1.7894 C   0  0  0  0  0  0
  -34.8864    7.0057   -1.6929 C   0  0  0  0  0  0
  -33.9518    6.1967   -0.7508 C   0  0  0  0  0  0
  -33.4575    4.7385   -0.7705 C   0  0  0  0  0  0
  -35.4594    5.8704   -0.9397 C   0  0  0  0  0  0
  1  3  2  0  0  0
  1  5  1  0  0  0
  1  8  1  0  0  0
  1  9  1  0  0  0
  2  4  2  0  0  0
  2  5  1  0  0  0
  2  6  1  0  0  0
  3  5  1  0  0  0
  3 12  1  0  0  0
  3 13  1  0  0  0
  4  5  1  0  0  0
  4  6  1  0  0  0
  4 12  1  0  0  0
  7  8  1  0  0  0
  7 11  1  0  0  0
  7 14  1  0  0  0
  8  9  1  0  0  0
  8 14  1  0  0  0
  9 13  1  0  0  0
 10 17  1  0  0  0
 10 11  1  0  0  0
 10 14  1  0  0  0
 12 13  2  0  0  0
 15 16  1  0  0  0
 15 19  1  0  0  0
 16 18  1  0  0  0
 16 19  1  0  0  0
 17 18  1  0  0  0
 17 20  1  0  0  0
 18 19  1  0  0  0
 18 20  1  0  0  0
M  END
> <s_m_entry_id>
71

> <s_m_entry_name>
NEW-hitrmd-var2_41_lig_gen_fit_add_gna.sdf.4

> <minimizedAffinity>
-11.05694

> <minimizedRMSD>
1.46527

> <CNNscore>
0.389695704

> <CNNaffinity>
5.9614362717

> <CNN_VS>
2.3231461048

> <CNNaffinity_variance>
0.4250177443

> <s_m_Source_Path>
C:\Users\maila\Downloads\mgr\NEW_model_var2_hitrmd

> <s_m_Source_File>
wzakresie-NEW-var2-hitrmd.mae

> <i_m_Source_File_Index>
28

> <s_user_SMILES>
C1C2=[C]13C4=C5C6C7([C]68=[C]45C238)C9C7CC9C(C1)C12C1C2C1

> <s_m_subgroup_title>
wzakresie-NEW-var2-hitrmd->NEW-hitrmd-var2_41_lig_gen_fit_add_gna

> <s_m_subgroupid>
wzakresie-NEW-var2-hitrmd->NEW-hitrmd-var2_41_lig_gen_fit_add_gna

> <b_m_subgroup_collapsed>
0

$$$$
CCC1C2C(C123)(C)C3[C]4(C5=[C]46[C]57=8)=CC6=C7C8
                    3D
 Schrodinger Suite 2021-1.
 16 23  0  0  1  0            999 V2000
  -33.3743    7.9268   -0.1612 C   0  0  0  0  0  0
  -35.2776    9.2836   -1.0613 C   0  0  0  0  0  0
  -34.0891    9.6215   -1.9767 C   0  0  0  0  0  0
  -36.5786    8.8226   -1.7449 C   0  0  0  0  0  0
  -34.2403    8.2415   -1.3554 C   0  0  0  0  0  0
  -34.8168    8.3479    0.0457 C   0  0  0  0  0  0
  -35.1255    9.8961   -6.8638 C   0  0  0  0  0  0
  -32.8728    9.5473   -5.2287 C   0  0  0  0  0  0
  -34.9602   10.5072   -5.6053 C   0  0  0  0  0  0
  -33.9524    9.6762   -6.1079 C   0  0  0  0  0  0
  -33.8966   10.4436   -4.4438 C   0  0  0  0  0  0
  -32.9856    8.5454   -4.0885 C   0  0  0  0  0  0
  -35.3232    9.8124   -4.2945 C   0  0  0  0  0  0
  -34.1404    9.3162   -3.4577 C   0  0  0  0  0  0
  -33.1276    6.4157    0.0398 C   0  0  0  0  0  0
  -33.2161    5.5748   -1.2431 C   0  0  0  0  0  0
  1 15  1  0  0  0
  1  5  1  0  0  0
  1  6  1  0  0  0
  2  3  1  0  0  0
  2  4  1  0  0  0
  2  5  1  0  0  0
  2  6  1  0  0  0
  3  5  1  0  0  0
  3 14  1  0  0  0
  5  6  1  0  0  0
  7  9  2  0  0  0
  7 10  1  0  0  0
  8 10  2  0  0  0
  8 11  1  0  0  0
  8 12  1  0  0  0
  9 10  1  0  0  0
  9 11  1  0  0  0
  9 13  1  0  0  0
 11 13  2  0  0  0
 11 14  1  0  0  0
 12 14  2  0  0  0
 13 14  1  0  0  0
 15 16  1  0  0  0
M  END
> <s_m_entry_id>
72

> <s_m_entry_name>
NEW-hitrmd-var2_41_lig_gen_fit_add_gna.sdf.6

> <minimizedAffinity>
-8.09331

> <minimizedRMSD>
0.7279

> <CNNscore>
0.3925157785

> <CNNaffinity>
5.5863642693

> <CNN_VS>
2.1927361488

> <CNNaffinity_variance>
0.1901114285

> <s_m_Source_Path>
C:\Users\maila\Downloads\mgr\NEW_model_var2_hitrmd

> <s_m_Source_File>
wzakresie-NEW-var2-hitrmd.mae

> <i_m_Source_File_Index>
29

> <s_user_SMILES>
CCC1C2C(C123)(C)C3[C]4(C5=[C]46[C]57=8)=CC6=C7C8

> <s_m_subgroup_title>
wzakresie-NEW-var2-hitrmd->NEW-hitrmd-var2_41_lig_gen_fit_add_gna

> <s_m_subgroupid>
wzakresie-NEW-var2-hitrmd->NEW-hitrmd-var2_41_lig_gen_fit_add_gna

> <b_m_subgroup_collapsed>
0

$$$$
[C]123=[C]45C(C5)=C1C2=CC34CCC6C(C67)C7CCC8CC8
                    3D
 Schrodinger Suite 2021-1.
 19 26  0  0  1  0            999 V2000
  -35.6985   10.4761   -3.6981 C   0  0  0  0  0  0
  -36.1659    8.5995   -1.9580 C   0  0  0  0  0  0
  -35.2333    7.7048   -1.1794 C   0  0  0  0  0  0
  -35.5770    9.9553   -2.2551 C   0  0  0  0  0  0
  -34.6266    8.7847   -2.0594 C   0  0  0  0  0  0
  -35.1838    6.2454   -1.6680 C   0  0  0  0  0  0
  -33.7809    5.6652   -1.8763 C   0  0  0  0  0  0
  -32.9646    3.2211   -1.9707 C   0  0  0  0  0  0
  -34.4814    3.1743   -1.8870 C   0  0  0  0  0  0
  -33.7089    4.2910   -1.1981 C   0  0  0  0  0  0
  -35.2541    9.4376   -4.7171 C   0  0  0  0  0  0
  -33.4885    9.6681   -8.1945 C   0  0  0  0  0  0
  -35.8185   10.5103   -7.2427 C   0  0  0  0  0  0
  -34.0332    9.1214   -7.0197 C   0  0  0  0  0  0
  -32.5141   10.4433   -7.3874 C   0  0  0  0  0  0
  -34.9748    9.8137   -7.8552 C   0  0  0  0  0  0
  -33.3065   10.2012   -6.1638 C   0  0  0  0  0  0
  -31.9664    9.5841   -6.2242 C   0  0  0  0  0  0
  -34.8368    9.9975   -6.1007 C   0  0  0  0  0  0
  1  4  1  0  0  0
  1 11  1  0  0  0
  2  3  1  0  0  0
  2  4  1  0  0  0
  2  5  1  0  0  0
  3  6  1  0  0  0
  3  5  1  0  0  0
  4  5  1  0  0  0
  6  7  1  0  0  0
  7 10  1  0  0  0
  8  9  1  0  0  0
  8 10  1  0  0  0
  9 10  1  0  0  0
 11 19  1  0  0  0
 12 14  1  0  0  0
 12 15  2  0  0  0
 12 16  1  0  0  0
 13 16  2  0  0  0
 13 19  1  0  0  0
 14 16  1  0  0  0
 14 17  2  0  0  0
 14 19  1  0  0  0
 15 17  1  0  0  0
 15 18  1  0  0  0
 17 18  1  0  0  0
 17 19  1  0  0  0
M  END
> <s_m_entry_id>
73

> <s_m_entry_name>
NEW-hitrmd-var2_41_lig_gen_fit_add_gna.sdf.9

> <minimizedAffinity>
-8.12089

> <minimizedRMSD>
0.73002

> <CNNscore>
0.2927531004

> <CNNaffinity>
6.0179991722

> <CNN_VS>
1.7617878914

> <CNNaffinity_variance>
0.2114883214

> <s_m_Source_Path>
C:\Users\maila\Downloads\mgr\NEW_model_var2_hitrmd

> <s_m_Source_File>
wzakresie-NEW-var2-hitrmd.mae

> <i_m_Source_File_Index>
30

> <s_user_SMILES>
[C]123=[C]45C(C5)=C1C2=CC34CCC6C(C67)C7CCC8CC8

> <s_m_subgroup_title>
wzakresie-NEW-var2-hitrmd->NEW-hitrmd-var2_41_lig_gen_fit_add_gna

> <s_m_subgroupid>
wzakresie-NEW-var2-hitrmd->NEW-hitrmd-var2_41_lig_gen_fit_add_gna

> <b_m_subgroup_collapsed>
0

$$$$
C12C(C2)C1CCC3(C4)C45C3(C567)[C]78=C9[C]1(=C68)C9C=C1
                    3D
 Schrodinger Suite 2021-1.
 18 27  0  0  1  0            999 V2000
  -32.8793    9.7865   -6.0569 C   0  0  0  0  0  0
  -33.7716   10.4056   -3.7596 C   0  0  0  0  0  0
  -32.8052   10.1136   -7.2873 C   0  0  0  0  0  0
  -34.1921    9.2836   -5.5219 C   0  0  0  0  0  0
  -34.1870    8.2662   -2.2947 C   0  0  0  0  0  0
  -33.0806    9.3735   -4.6508 C   0  0  0  0  0  0
  -34.0649    9.7916   -2.3756 C   0  0  0  0  0  0
  -35.4370    9.1433   -2.3015 C   0  0  0  0  0  0
  -34.2636    9.6049   -7.1002 C   0  0  0  0  0  0
  -34.9686   10.3093   -4.7184 C   0  0  0  0  0  0
  -35.2051   10.3376   -3.2168 C   0  0  0  0  0  0
  -35.4862    7.7651   -2.9080 C   0  0  0  0  0  0
  -33.8923    7.7529   -0.8691 C   0  0  0  0  0  0
  -34.4776    6.3598   -0.5947 C   0  0  0  0  0  0
  -33.0467    4.7456   -2.0366 C   0  0  0  0  0  0
  -32.9708    3.2374   -2.0643 C   0  0  0  0  0  0
  -33.9323    3.9032   -1.1071 C   0  0  0  0  0  0
  -33.4127    5.2553   -0.6542 C   0  0  0  0  0  0
  1  3  1  0  0  0
  1  4  1  0  0  0
  1  6  1  0  0  0
  2  6  2  0  0  0
  2  7  1  0  0  0
  2 10  1  0  0  0
  2 11  1  0  0  0
  3  9  2  0  0  0
  4  6  1  0  0  0
  4  9  1  0  0  0
  4 10  2  0  0  0
  5  7  1  0  0  0
  5  8  1  0  0  0
  5 13  1  0  0  0
  5 12  1  0  0  0
  7  8  1  0  0  0
  7 11  1  0  0  0
  8 11  1  0  0  0
  8 12  1  0  0  0
 10 11  1  0  0  0
 13 14  1  0  0  0
 14 18  1  0  0  0
 15 16  1  0  0  0
 15 17  1  0  0  0
 15 18  1  0  0  0
 16 17  1  0  0  0
 17 18  1  0  0  0
M  END
> <s_m_entry_id>
74

> <s_m_entry_name>
NEW-hitrmd-var2_41_lig_gen_fit_add_gna.sdf.10

> <minimizedAffinity>
-8.81453

> <minimizedRMSD>
1.09934

> <CNNscore>
0.362411797

> <CNNaffinity>
5.9457778931

> <CNN_VS>
2.1548199654

> <CNNaffinity_variance>
0.1530448347

> <s_m_Source_Path>
C:\Users\maila\Downloads\mgr\NEW_model_var2_hitrmd

> <s_m_Source_File>
wzakresie-NEW-var2-hitrmd.mae

> <i_m_Source_File_Index>
31

> <s_user_SMILES>
C12C(C2)C1CCC3(C4)C45C3(C567)[C]78=C9[C]1(=C68)C9C=C1

> <s_m_subgroup_title>
wzakresie-NEW-var2-hitrmd->NEW-hitrmd-var2_41_lig_gen_fit_add_gna

> <s_m_subgroupid>
wzakresie-NEW-var2-hitrmd->NEW-hitrmd-var2_41_lig_gen_fit_add_gna

> <b_m_subgroup_collapsed>
0

$$$$
c1ccc(c12)c2C[C@@H](C3)C34[C@H]5[C@@H]4[C@H]5C[C@@H]6[C@@H]([C@@H]67)C7
                    3D
 Schrodinger Suite 2021-1.
 18 24  0  0  1  0            999 V2000
   26.7524   12.5977   19.1623 C   0  0  0  0  0  0
   28.0102   12.6413   19.9254 C   0  0  1  0  0  0
   29.3068   13.6830   18.2338 C   0  0  1  0  0  0
   29.3746   13.9502   16.7570 C   0  0  1  0  0  0
   27.8429   13.6150   18.7333 C   0  0  3  0  0  0
   28.2543   13.1124   17.3299 C   0  0  2  0  0  0
   28.9925   15.3780   16.3913 C   0  0  0  0  0  0
   28.6395   18.4343   17.0971 C   0  0  0  0  0  0
   29.8528   17.7610   16.5068 C   0  0  2  0  0  0
   29.9961   16.3475   17.0188 C   0  0  1  0  0  0
   29.3612   17.3886   17.9136 C   0  0  2  0  0  0
   28.2097   13.4385   21.2147 C   0  0  0  0  0  0
   24.6430   15.0062   23.7475 C   0  0  0  0  0  0
   26.5444   14.4825   23.1307 C   0  0  0  0  0  0
   24.2969   14.3971   22.4423 C   0  0  0  0  0  0
   26.0197   15.0345   24.2034 C   0  0  0  0  0  0
   25.6390   14.1210   22.1514 C   0  0  0  0  0  0
   27.0097   13.8977   21.9730 C   0  0  0  0  0  0
  1  2  1  0  0  0
  1  5  1  0  0  0
  2  5  1  0  0  0
  2 12  1  0  0  0
  3  4  1  0  0  0
  3  5  1  0  0  0
  3  6  1  0  0  0
  4  7  1  0  0  0
  4  6  1  0  0  0
  5  6  1  0  0  0
  7 10  1  0  0  0
  8  9  1  0  0  0
  8 11  1  0  0  0
  9 10  1  0  0  0
  9 11  1  0  0  0
 10 11  1  0  0  0
 12 18  1  0  0  0
 13 15  2  0  0  0
 13 16  1  0  0  0
 14 16  2  0  0  0
 14 17  1  0  0  0
 14 18  1  0  0  0
 15 17  1  0  0  0
 17 18  2  0  0  0
M  END
> <s_m_entry_id>
75

> <s_m_entry_name>
NEW-hitrmd-var2_45_lig_gen_fit_add_gna.sdf.1

> <minimizedAffinity>
-8.73378

> <minimizedRMSD>
0.44938

> <CNNscore>
0.4886784852

> <CNNaffinity>
5.8661141396

> <CNN_VS>
2.8666436672

> <CNNaffinity_variance>
0.1899977028

> <s_m_Source_Path>
C:\Users\maila\Downloads\mgr\NEW_model_var2_hitrmd

> <s_m_Source_File>
wzakresie-NEW-var2-hitrmd.mae

> <i_m_Source_File_Index>
32

> <s_user_SMILES>
c1ccc(c12)c2C[C@@H](C3)C34[C@H]5[C@@H]4[C@H]5C[C@@H]6[C@@H]([C@@H]67)C7

> <s_m_subgroup_title>
wzakresie-NEW-var2-hitrmd->NEW-hitrmd-var2_45_lig_gen_fit_add_gna

> <s_m_subgroupid>
wzakresie-NEW-var2-hitrmd->NEW-hitrmd-var2_45_lig_gen_fit_add_gna

> <b_m_subgroup_collapsed>
0

$$$$
CCCC(C1)C1(C234)C3C2(C4)CCC=5[C]6([C]57C689)=CC9=C78
                    3D
 Schrodinger Suite 2021-1.
 19 27  0  0  1  0            999 V2000
   30.0910   13.1914   17.9874 C   0  0  0  0  0  0
   27.4669   12.5755   17.4723 C   0  0  0  0  0  0
   29.2215   12.8170   19.1779 C   0  0  0  0  0  0
   28.8947   12.2270   17.8299 C   0  0  0  0  0  0
   30.2288   14.7408   18.1330 C   0  0  0  0  0  0
   27.8304   12.2490   18.9243 C   0  0  0  0  0  0
   29.9491   14.1558   16.7995 C   0  0  0  0  0  0
   29.1510   15.7579   18.5558 C   0  0  0  0  0  0
   29.2736   18.1883   17.8163 C   0  0  0  0  0  0
   28.9509   16.7586   17.4055 C   0  0  0  0  0  0
   26.9405   13.1810   19.7644 C   0  0  0  0  0  0
   27.7708   13.7847   20.9007 C   0  0  0  0  0  0
   26.0636   14.7355   24.4468 C   0  0  0  0  0  0
   26.5436   14.9096   22.9836 C   0  0  0  0  0  0
   24.9064   14.7355   23.6071 C   0  0  0  0  0  0
   24.1274   14.1325   22.4977 C   0  0  0  0  0  0
   27.2376   13.7594   22.3433 C   0  0  0  0  0  0
   25.7036   13.7768   22.4172 C   0  0  0  0  0  0
   25.1530   15.0424   22.3306 C   0  0  0  0  0  0
  1  3  1  0  0  0
  1  4  1  0  0  0
  1  5  1  0  0  0
  1  7  1  0  0  0
  2  4  1  0  0  0
  2  6  1  0  0  0
  3  4  1  0  0  0
  3  6  1  0  0  0
  4  6  1  0  0  0
  5  8  1  0  0  0
  5  7  1  0  0  0
  6 11  1  0  0  0
  8 10  1  0  0  0
  9 10  1  0  0  0
 11 12  1  0  0  0
 12 17  1  0  0  0
 13 14  2  0  0  0
 13 15  1  0  0  0
 14 17  1  0  0  0
 14 18  1  0  0  0
 14 19  1  0  0  0
 15 16  2  0  0  0
 15 19  1  0  0  0
 16 18  1  0  0  0
 16 19  1  0  0  0
 17 18  2  0  0  0
 18 19  1  0  0  0
M  END
> <s_m_entry_id>
76

> <s_m_entry_name>
NEW-hitrmd-var2_45_lig_gen_fit_add_gna.sdf.4

> <minimizedAffinity>
-8.73274

> <minimizedRMSD>
0.7919

> <CNNscore>
0.3660340309

> <CNNaffinity>
6.2423048019

> <CNN_VS>
2.2848958969

> <CNNaffinity_variance>
0.2056652009

> <s_m_Source_Path>
C:\Users\maila\Downloads\mgr\NEW_model_var2_hitrmd

> <s_m_Source_File>
wzakresie-NEW-var2-hitrmd.mae

> <i_m_Source_File_Index>
33

> <s_user_SMILES>
CCCC(C1)C1(C234)C3C2(C4)CCC=5[C]6([C]57C689)=CC9=C78

> <s_m_subgroup_title>
wzakresie-NEW-var2-hitrmd->NEW-hitrmd-var2_45_lig_gen_fit_add_gna

> <s_m_subgroupid>
wzakresie-NEW-var2-hitrmd->NEW-hitrmd-var2_45_lig_gen_fit_add_gna

> <b_m_subgroup_collapsed>
0

$$$$
C12C(C2)C1CC3C(C34)C4C5C(C6=C7)C5=C(C8)[C]69=[C]7([C]1=89)C1
                    3D
 Schrodinger Suite 2021-1.
 20 29  0  0  1  0            999 V2000
   27.3373   13.9807   22.2217 C   0  0  0  0  0  0
   24.0697   13.5830   21.9906 C   0  0  0  0  0  0
   26.0663   13.1495   20.2893 C   0  0  0  0  0  0
   27.1293   15.2621   23.0372 C   0  0  0  0  0  0
   24.6391   15.4136   23.7258 C   0  0  0  0  0  0
   26.0285   13.4961   22.6753 C   0  0  0  0  0  0
   25.9051   14.6205   23.6456 C   0  0  0  0  0  0
   25.2588   12.8019   21.5676 C   0  0  0  0  0  0
   24.9836   14.6542   22.4805 C   0  0  0  0  0  0
   27.3375   13.9268   20.7073 C   0  0  0  0  0  0
   27.4597   12.5263   20.1643 C   0  0  0  0  0  0
   27.9536   12.3173   18.7024 C   0  0  0  0  0  0
   29.3732   13.4690   16.9877 C   0  0  0  0  0  0
   28.0549   13.4588   17.7157 C   0  0  0  0  0  0
   29.3326   12.8854   18.3930 C   0  0  0  0  0  0
   30.0643   14.8312   16.7844 C   0  0  0  0  0  0
   29.2557   18.3989   17.6982 C   0  0  0  0  0  0
   29.8212   17.4284   16.6844 C   0  0  0  0  0  0
   29.2559   16.9213   18.0198 C   0  0  0  0  0  0
   29.1446   16.0702   16.7644 C   0  0  0  0  0  0
  1  4  2  0  0  0
  1  6  1  0  0  0
  1 10  1  0  0  0
  2  8  1  0  0  0
  2  9  2  0  0  0
  3  8  2  0  0  0
  3 10  1  0  0  0
  3 11  1  0  0  0
  4  7  1  0  0  0
  5  7  1  0  0  0
  5  9  1  0  0  0
  6  7  2  0  0  0
  6  8  1  0  0  0
  6  9  1  0  0  0
  7  9  1  0  0  0
 10 11  1  0  0  0
 11 12  1  0  0  0
 12 14  1  0  0  0
 12 15  1  0  0  0
 13 16  1  0  0  0
 13 14  1  0  0  0
 13 15  1  0  0  0
 14 15  1  0  0  0
 16 20  1  0  0  0
 17 18  1  0  0  0
 17 19  1  0  0  0
 18 19  1  0  0  0
 18 20  1  0  0  0
 19 20  1  0  0  0
M  END
> <s_m_entry_id>
77

> <s_m_entry_name>
NEW-hitrmd-var2_45_lig_gen_fit_add_gna.sdf.10

> <minimizedAffinity>
-9.09419

> <minimizedRMSD>
0.63418

> <CNNscore>
0.3416204453

> <CNNaffinity>
6.2626237869

> <CNN_VS>
2.1394402981

> <CNNaffinity_variance>
0.2029041052

> <s_m_Source_Path>
C:\Users\maila\Downloads\mgr\NEW_model_var2_hitrmd

> <s_m_Source_File>
wzakresie-NEW-var2-hitrmd.mae

> <i_m_Source_File_Index>
34

> <s_user_SMILES>
C12C(C2)C1CC3C(C34)C4C5C(C6=C7)C5=C(C8)[C]69=[C]7([C]1=89)C1

> <s_m_subgroup_title>
wzakresie-NEW-var2-hitrmd->NEW-hitrmd-var2_45_lig_gen_fit_add_gna

> <s_m_subgroupid>
wzakresie-NEW-var2-hitrmd->NEW-hitrmd-var2_45_lig_gen_fit_add_gna

> <b_m_subgroup_collapsed>
0

$$$$
CCC(C)C(C1)C1(C234)C2C3C4C(=C5C6=[C]578)C8=CC=C67
                    3D
 Schrodinger Suite 2021-1.
 19 26  0  0  1  0            999 V2000
  -36.1972    9.5968   -2.0924 C   0  0  0  0  0  0
  -34.7139    9.8692   -2.1845 C   0  0  0  0  0  0
  -33.9253    7.2425   -0.2606 C   0  0  0  0  0  0
  -35.2527    6.5907   -0.0140 C   0  0  0  0  0  0
  -36.4572    8.3995   -1.2086 C   0  0  0  0  0  0
  -35.1589    8.4755   -1.8640 C   0  0  0  0  0  0
  -35.1843    8.1180   -0.3658 C   0  0  0  0  0  0
  -34.2097    9.9406   -3.5783 C   0  0  0  0  0  0
  -33.1946    9.6467   -4.2489 C   0  0  0  0  0  0
  -34.5488   10.5707   -4.9849 C   0  0  0  0  0  0
  -35.5489   10.4077   -5.8644 C   0  0  0  0  0  0
  -33.0783   10.3477   -5.4530 C   0  0  0  0  0  0
  -32.7716    9.0540   -5.5894 C   0  0  0  0  0  0
  -34.8974    9.7912   -7.0475 C   0  0  0  0  0  0
  -33.6666    9.6795   -6.6300 C   0  0  0  0  0  0
  -36.8902    4.8679   -1.0111 C   0  0  0  0  0  0
  -35.4602    5.4257   -1.0317 C   0  0  0  0  0  0
  -33.6393    3.9059   -1.8947 C   0  0  0  0  0  0
  -34.4943    4.2730   -0.6941 C   0  0  0  0  0  0
  1  2  1  0  0  0
  1  5  1  0  0  0
  1  6  1  0  0  0
  2  8  1  0  0  0
  2  6  1  0  0  0
  3  4  1  0  0  0
  3  7  1  0  0  0
  4  7  1  0  0  0
  4 17  1  0  0  0
  5  6  1  0  0  0
  5  7  1  0  0  0
  6  7  1  0  0  0
  8  9  2  0  0  0
  8 10  1  0  0  0
  9 12  1  0  0  0
  9 13  1  0  0  0
 10 11  2  0  0  0
 10 12  1  0  0  0
 11 14  1  0  0  0
 12 13  2  0  0  0
 12 15  1  0  0  0
 13 15  1  0  0  0
 14 15  2  0  0  0
 16 17  1  0  0  0
 17 19  1  0  0  0
 18 19  1  0  0  0
M  END
> <s_m_entry_id>
78

> <s_m_entry_name>
NEW-hitrmd-var2_46_lig_gen_fit_add_gna.sdf.2

> <minimizedAffinity>
-9.49521

> <minimizedRMSD>
0.3762

> <CNNscore>
0.3558776081

> <CNNaffinity>
6.2581839561

> <CNN_VS>
2.2271475792

> <CNNaffinity_variance>
0.1139502674

> <s_m_Source_Path>
C:\Users\maila\Downloads\mgr\NEW_model_var2_hitrmd

> <s_m_Source_File>
wzakresie-NEW-var2-hitrmd.mae

> <i_m_Source_File_Index>
35

> <s_user_SMILES>
CCC(C)C(C1)C1(C234)C2C3C4C(=C5C6=[C]578)C8=CC=C67

> <s_m_subgroup_title>
wzakresie-NEW-var2-hitrmd->NEW-hitrmd-var2_46_lig_gen_fit_add_gna

> <s_m_subgroupid>
wzakresie-NEW-var2-hitrmd->NEW-hitrmd-var2_46_lig_gen_fit_add_gna

> <b_m_subgroup_collapsed>
0

$$$$
C1CC1CC2CC3C(C45)C23C5C6C=7C6=[C]4([C]789)C8=C9
                    3D
 Schrodinger Suite 2021-1.
 18 26  0  0  1  0            999 V2000
  -35.8825   10.9636   -4.0313 C   0  0  0  0  0  0
  -33.4481    9.5845   -4.7278 C   0  0  0  0  0  0
  -34.5494   10.5756   -4.2801 C   0  0  0  0  0  0
  -35.4899   10.1364   -5.1737 C   0  0  0  0  0  0
  -36.6568    7.5315   -2.2227 C   0  0  0  0  0  0
  -36.4137    8.8947   -1.6232 C   0  0  0  0  0  0
  -35.4846    6.8294   -0.4982 C   0  0  0  0  0  0
  -33.3330   10.3019   -3.3505 C   0  0  0  0  0  0
  -35.3238    9.8562   -2.1059 C   0  0  0  0  0  0
  -33.8668    9.0311   -3.4053 C   0  0  0  0  0  0
  -35.3214    7.8086   -1.6182 C   0  0  0  0  0  0
  -34.3029    8.8972   -1.9154 C   0  0  0  0  0  0
  -36.7951    6.4032   -1.1836 C   0  0  0  0  0  0
  -34.9173    9.8177   -3.5921 C   0  0  0  0  0  0
  -34.3466    5.8168   -0.3816 C   0  0  0  0  0  0
  -35.0588    3.6852   -1.9525 C   0  0  0  0  0  0
  -34.6015    4.3155   -0.6524 C   0  0  0  0  0  0
  -33.5927    3.8505   -1.7044 C   0  0  0  0  0  0
  1  3  1  0  0  0
  1  4  2  0  0  0
  1 14  1  0  0  0
  2  3  2  0  0  0
  2  8  1  0  0  0
  2 10  1  0  0  0
  3  4  1  0  0  0
  3 14  1  0  0  0
  5  6  1  0  0  0
  5 11  1  0  0  0
  5 13  1  0  0  0
  6  9  1  0  0  0
  6 11  1  0  0  0
  7 11  1  0  0  0
  7 15  1  0  0  0
  7 13  1  0  0  0
  8 10  1  0  0  0
  8 14  2  0  0  0
  9 12  1  0  0  0
  9 14  1  0  0  0
 10 12  1  0  0  0
 11 12  1  0  0  0
 15 17  1  0  0  0
 16 17  1  0  0  0
 16 18  1  0  0  0
 17 18  1  0  0  0
M  END
> <s_m_entry_id>
79

> <s_m_entry_name>
NEW-hitrmd-var2_46_lig_gen_fit_add_gna.sdf.8

> <minimizedAffinity>
-8.28423

> <minimizedRMSD>
0.75204

> <CNNscore>
0.209866941

> <CNNaffinity>
5.6337776184

> <CNN_VS>
1.1823437214

> <CNNaffinity_variance>
0.3574992716

> <s_m_Source_Path>
C:\Users\maila\Downloads\mgr\NEW_model_var2_hitrmd

> <s_m_Source_File>
wzakresie-NEW-var2-hitrmd.mae

> <i_m_Source_File_Index>
36

> <s_user_SMILES>
C1CC1CC2CC3C(C45)C23C5C6C=7C6=[C]4([C]789)C8=C9

> <s_m_subgroup_title>
wzakresie-NEW-var2-hitrmd->NEW-hitrmd-var2_46_lig_gen_fit_add_gna

> <s_m_subgroupid>
wzakresie-NEW-var2-hitrmd->NEW-hitrmd-var2_46_lig_gen_fit_add_gna

> <b_m_subgroup_collapsed>
0

$$$$
[C@@H]12[C@H](C2)[C@H]1C[C@@H](C3)[C@@H]3CCC(=C45)C=C6C7=C4C567
                    3D
 Schrodinger Suite 2021-1.
 17 23  0  0  1  0            999 V2000
  -34.2904    9.7101   -2.0217 C   0  0  0  0  0  0
  -35.6682    8.3908   -0.1274 C   0  0  1  0  0  0
  -34.8618    9.5304    0.4767 C   0  0  0  0  0  0
  -35.3934    9.6602   -0.9479 C   0  0  1  0  0  0
  -34.8562    7.0998   -0.3157 C   0  0  0  0  0  0
  -35.9044    3.6581   -1.4421 C   0  0  0  0  0  0
  -35.6136    6.1383   -1.2380 C   0  0  2  0  0  0
  -36.1884    4.8844   -0.6032 C   0  0  2  0  0  0
  -34.9212    4.8073   -1.4709 C   0  0  1  0  0  0
  -34.8960   10.0473   -3.3886 C   0  0  0  0  0  0
  -32.7992    8.9900   -4.6384 C   0  0  0  0  0  0
  -33.3893    9.5519   -5.7792 C   0  0  0  0  0  0
  -34.1214    9.9167   -5.7837 C   0  0  0  0  0  0
  -34.7860   10.2527   -7.0041 C   0  0  0  0  0  0
  -33.2320   10.6374   -7.0354 C   0  0  0  0  0  0
  -33.8992    9.8449   -4.5161 C   0  0  0  0  0  0
  -33.7858    9.4030   -6.9877 C   0  0  3  0  0  0
  1 10  1  0  0  0
  1  4  1  0  0  0
  2  5  1  0  0  0
  2  3  1  0  0  0
  2  4  1  0  0  0
  3  4  1  0  0  0
  5  7  1  0  0  0
  6  8  1  0  0  0
  6  9  1  0  0  0
  7  8  1  0  0  0
  7  9  1  0  0  0
  8  9  1  0  0  0
 10 16  1  0  0  0
 11 12  2  0  0  0
 11 16  1  0  0  0
 12 15  1  0  0  0
 12 17  1  0  0  0
 13 14  1  0  0  0
 13 16  2  0  0  0
 13 17  1  0  0  0
 14 15  2  0  0  0
 14 17  1  0  0  0
 15 17  1  0  0  0
M  END
> <s_m_entry_id>
80

> <s_m_entry_name>
NEW-hitrmd-var2_46_lig_gen_fit_add_gna.sdf.9

> <minimizedAffinity>
-8.1674

> <minimizedRMSD>
0.68248

> <CNNscore>
0.5007041693

> <CNNaffinity>
5.864985466

> <CNN_VS>
2.9366226196

> <CNNaffinity_variance>
0.1841640472

> <s_m_Source_Path>
C:\Users\maila\Downloads\mgr\NEW_model_var2_hitrmd

> <s_m_Source_File>
wzakresie-NEW-var2-hitrmd.mae

> <i_m_Source_File_Index>
37

> <s_user_SMILES>
[C@@H]12[C@H](C2)[C@H]1C[C@@H](C3)[C@@H]3CCC(=C45)C=C6C7=C4C567

> <s_m_subgroup_title>
wzakresie-NEW-var2-hitrmd->NEW-hitrmd-var2_46_lig_gen_fit_add_gna

> <s_m_subgroupid>
wzakresie-NEW-var2-hitrmd->NEW-hitrmd-var2_46_lig_gen_fit_add_gna

> <b_m_subgroup_collapsed>
0

$$$$
CCCC1C(C123)C3C2CCC=4[C]=5([C]467)C(=C6C7)CC5
                    3D
 Schrodinger Suite 2021-1.
 18 24  0  0  1  0            999 V2000
  -36.4594    9.6603   -1.6116 C   0  0  0  0  0  0
  -35.5769    9.7909   -0.3546 C   0  0  0  0  0  0
  -34.1426    9.3395   -0.3914 C   0  0  0  0  0  0
  -33.9341    7.8848   -0.0580 C   0  0  0  0  0  0
  -35.1386    8.6168    0.5275 C   0  0  0  0  0  0
  -35.2185    7.1181    0.1868 C   0  0  0  0  0  0
  -35.7968    6.4985   -1.0993 C   0  0  0  0  0  0
  -36.3739    5.1056   -0.8204 C   0  0  0  0  0  0
  -37.1645    4.5814   -2.0153 C   0  0  0  0  0  0
  -35.8092    9.2126   -2.9373 C   0  0  0  0  0  0
  -35.3077   10.0132   -5.4093 C   0  0  0  0  0  0
  -35.7341   10.7997   -6.6092 C   0  0  0  0  0  0
  -34.1469    9.5654   -6.1048 C   0  0  0  0  0  0
  -34.6315   10.3092   -7.3195 C   0  0  0  0  0  0
  -35.6953   10.3607   -3.9844 C   0  0  0  0  0  0
  -33.2397   10.1038   -3.7966 C   0  0  0  0  0  0
  -34.3734   10.8979   -4.4618 C   0  0  0  0  0  0
  -33.2087   10.3344   -5.2627 C   0  0  0  0  0  0
  1  2  1  0  0  0
  1 10  1  0  0  0
  2  3  1  0  0  0
  2  5  1  0  0  0
  3  4  1  0  0  0
  3  5  1  0  0  0
  4  5  1  0  0  0
  4  6  1  0  0  0
  5  6  1  0  0  0
  6  7  1  0  0  0
  7  8  1  0  0  0
  8  9  1  0  0  0
 10 15  1  0  0  0
 11 12  2  0  0  0
 11 13  1  0  0  0
 11 15  1  0  0  0
 11 17  1  0  0  0
 12 14  1  0  0  0
 13 14  1  0  0  0
 13 18  2  0  0  0
 15 17  2  0  0  0
 16 17  1  0  0  0
 16 18  1  0  0  0
 17 18  1  0  0  0
M  END
> <s_m_entry_id>
81

> <s_m_entry_name>
NEW-hitrmd-var2_47_lig_gen_fit_add_gna.sdf.4

> <minimizedAffinity>
-8.07658

> <minimizedRMSD>
0.84448

> <CNNscore>
0.281241864

> <CNNaffinity>
6.0372934341

> <CNN_VS>
1.6979396343

> <CNNaffinity_variance>
0.1486212462

> <s_m_Source_Path>
C:\Users\maila\Downloads\mgr\NEW_model_var2_hitrmd

> <s_m_Source_File>
wzakresie-NEW-var2-hitrmd.mae

> <i_m_Source_File_Index>
38

> <s_user_SMILES>
CCCC1C(C123)C3C2CCC=4[C]=5([C]467)C(=C6C7)CC5

> <s_m_subgroup_title>
wzakresie-NEW-var2-hitrmd->NEW-hitrmd-var2_47_lig_gen_fit_add_gna

> <s_m_subgroupid>
wzakresie-NEW-var2-hitrmd->NEW-hitrmd-var2_47_lig_gen_fit_add_gna

> <b_m_subgroup_collapsed>
0

$$$$
CCCC=C=C1C(=C12)C2(CC)C3[C]4(=[C]35[C]46=[C]578)C=C6C7=C8
                    3D
 Schrodinger Suite 2021-1.
 20 27  0  0  1  0            999 V2000
   45.2117  117.4635   16.6484 C   0  0  0  0  0  0
   45.5578  117.0270   17.9828 C   0  0  0  0  0  0
   47.4498  117.2224   19.7876 C   0  0  0  0  0  0
   44.1565  117.3180   17.6340 C   0  0  0  0  0  0
   44.7469  116.1176   17.0414 C   0  0  0  0  0  0
   46.4838  117.1109   18.9212 C   0  0  0  0  0  0
   46.4540  115.8476   12.5913 C   0  0  0  0  0  0
   45.8126  114.6302   12.9041 C   0  0  0  0  0  0
   45.1342  115.8344   13.0576 C   0  0  0  0  0  0
   45.0669  113.4660   13.2589 C   0  0  0  0  0  0
   44.1954  114.7076   13.5287 C   0  0  0  0  0  0
   44.9661  115.6593   14.5368 C   0  0  0  0  0  0
   45.3256  113.4427   14.6551 C   0  0  0  0  0  0
   44.2065  114.4282   14.9267 C   0  0  0  0  0  0
   44.0224  115.7807   15.6860 C   0  0  0  0  0  0
   44.2467  114.9013   18.0504 C   0  0  0  0  0  0
   45.3130  113.8403   18.3342 C   0  0  0  0  0  0
   48.7423  117.8721   19.3889 C   0  0  0  0  0  0
   48.4862  119.0432   18.4375 C   0  0  0  0  0  0
   49.5755  119.1341   17.3742 C   0  0  0  0  0  0
  1  2  1  0  0  0
  1  4  2  0  0  0
  1  5  1  0  0  0
  2  4  1  0  0  0
  2  6  2  0  0  0
  3 18  1  0  0  0
  3  6  2  0  0  0
  4  5  1  0  0  0
  5 16  1  0  0  0
  5 15  1  0  0  0
  7  8  2  0  0  0
  7  9  1  0  0  0
  8  9  1  0  0  0
  8 10  1  0  0  0
  9 11  2  0  0  0
  9 12  1  0  0  0
 10 11  1  0  0  0
 10 13  2  0  0  0
 11 12  1  0  0  0
 11 14  1  0  0  0
 12 14  2  0  0  0
 12 15  1  0  0  0
 13 14  1  0  0  0
 14 15  1  0  0  0
 16 17  1  0  0  0
 18 19  1  0  0  0
 19 20  1  0  0  0
M  END
> <i_m_stars>
0

> <s_m_entry_id>
82

> <s_m_entry_name>
NEW-hitrmd-var4_1_lig_gen_fit_add_gna.sdf.4

> <minimizedAffinity>
-8.14778

> <minimizedRMSD>
1.85389

> <CNNscore>
0.2781516314

> <CNNaffinity>
5.8724708557

> <CNN_VS>
1.6334373951

> <CNNaffinity_variance>
0.0644744933

> <s_m_Source_Path>
C:\Users\maila\Downloads\mgr\NEW_model_var4_hitrmd

> <s_m_Source_File>
wzakresie-NEW_model_var4_hitrmd.mae

> <i_m_Source_File_Index>
1

> <s_user_SMILES>
CCCC=C=C1C(=C12)C2(CC)C3[C]4(=[C]35[C]46=[C]578)C=C6C7=C8

> <s_m_subgroup_title>
wzakresie-NEW_model_var4_hitrmd->NEW-hitrmd-var4_1_lig_gen_fit_add_gna

> <s_m_subgroupid>
wzakresie-NEW_model_var4_hitrmd->NEW-hitrmd-var4_1_lig_gen_fit_add_gna

> <b_m_subgroup_collapsed>
0

$$$$
C1=C2[C]13=[C]4(C235)C5=C4C(C6)C6(C7=8)[C]89[C]1(=[C]279)[C]23=[C]24[C]13=[C]14C2=C1
                    3D
 Schrodinger Suite 2021-1.
 20 34  0  0  1  0            999 V2000
   35.9336  -29.2479   -6.9828 C   0  0  0  0  0  0
   37.0148  -27.1801   -5.7070 C   0  0  0  0  0  0
   37.2182  -29.9914   -7.1824 C   0  0  0  0  0  0
   35.7473  -26.5391   -6.2777 C   0  0  0  0  0  0
   35.9386  -24.1361   -7.0502 C   0  0  0  0  0  0
   35.9544  -25.6352   -7.3868 C   0  0  0  0  0  0
   35.4206  -23.4842   -8.4209 C   0  0  0  0  0  0
   37.2101  -26.2231   -6.7946 C   0  0  0  0  0  0
   37.8728  -27.5874   -6.9245 C   0  0  0  0  0  0
   37.0791  -28.6889   -7.6080 C   0  0  0  0  0  0
   37.1769  -28.6368   -6.2045 C   0  0  0  0  0  0
   35.2094  -25.1400   -6.1388 C   0  0  0  0  0  0
   34.8582  -23.0545   -7.0745 C   0  0  0  0  0  0
   34.5440  -23.5445  -12.2435 C   0  0  0  0  0  0
   34.2481  -24.9998  -12.1570 C   0  0  0  0  0  0
   35.2714  -24.0721   -9.9651 C   0  0  0  0  0  0
   35.2992  -24.4417  -11.4578 C   0  0  0  0  0  0
   34.1674  -24.0637  -10.8010 C   0  0  0  0  0  0
   34.4572  -22.9629   -9.6968 C   0  0  0  0  0  0
   34.1842  -24.3358   -9.1686 C   0  0  0  0  0  0
  1  3  2  0  0  0
  1 10  1  0  0  0
  1 11  1  0  0  0
  2  4  1  0  0  0
  2  8  1  0  0  0
  2  9  1  0  0  0
  2 11  2  0  0  0
  3 10  1  0  0  0
  4  6  1  0  0  0
  4  8  2  0  0  0
  4 12  1  0  0  0
  5  6  1  0  0  0
  5  7  1  0  0  0
  5 12  1  0  0  0
  5 13  1  0  0  0
  6  8  1  0  0  0
  6 12  2  0  0  0
  7 20  1  0  0  0
  7 13  1  0  0  0
  8  9  1  0  0  0
  9 10  2  0  0  0
  9 11  1  0  0  0
 10 11  1  0  0  0
 14 15  2  0  0  0
 14 17  1  0  0  0
 14 18  1  0  0  0
 15 17  1  0  0  0
 16 17  2  0  0  0
 16 18  1  0  0  0
 16 19  1  0  0  0
 16 20  1  0  0  0
 17 18  1  0  0  0
 18 19  1  0  0  0
 19 20  2  0  0  0
M  END
> <s_m_entry_id>
83

> <s_m_entry_name>
NEW-hitrmd-var4_2_lig_gen_fit_add_gna.sdf.2

> <minimizedAffinity>
-10.07535

> <minimizedRMSD>
0.56975

> <CNNscore>
0.3970554769

> <CNNaffinity>
5.7366762161

> <CNN_VS>
2.2777786255

> <CNNaffinity_variance>
0.1814266443

> <s_m_Source_Path>
C:\Users\maila\Downloads\mgr\NEW_model_var4_hitrmd

> <s_m_Source_File>
wzakresie-NEW_model_var4_hitrmd.mae

> <i_m_Source_File_Index>
2

> <s_user_SMILES>
C1=C2[C]13=[C]4(C235)C5=C4C(C6)C6(C7=8)[C]89[C]1(=[C]279)[C]23=[C]24[C]13=[C]14C2=C1

> <s_m_subgroup_title>
wzakresie-NEW_model_var4_hitrmd->NEW-hitrmd-var4_2_lig_gen_fit_add_gna

> <s_m_subgroupid>
wzakresie-NEW_model_var4_hitrmd->NEW-hitrmd-var4_2_lig_gen_fit_add_gna

> <b_m_subgroup_collapsed>
0

$$$$
CC1=C(C2)C12C=C3C([C]345)C5C=4C=6C7=[C]8([C]679)[C]=19C8=CC1
                    3D
 Schrodinger Suite 2021-1.
 19 28  0  0  1  0            999 V2000
   35.8715  -23.3674   -6.0134 C   0  0  0  0  0  0
   35.2003  -24.3554   -5.2135 C   0  0  0  0  0  0
   37.5532  -25.5656   -6.0849 C   0  0  0  0  0  0
   34.3845  -23.4983   -6.1477 C   0  0  0  0  0  0
   36.5460  -24.7310   -5.8388 C   0  0  0  0  0  0
   35.1987  -23.1770   -7.4235 C   0  0  0  0  0  0
   34.1764  -23.2579  -10.4270 C   0  0  0  0  0  0
   34.5663  -23.4567   -8.9475 C   0  0  0  0  0  0
   35.0638  -24.5850   -8.3111 C   0  0  0  0  0  0
   33.0730  -23.9654  -11.1064 C   0  0  0  0  0  0
   33.9554  -24.3438  -12.1176 C   0  0  0  0  0  0
   35.1091  -23.7883  -11.3374 C   0  0  0  0  0  0
   35.1051  -24.3032   -9.9205 C   0  0  0  0  0  0
   35.9757  -23.5290   -8.8513 C   0  0  0  0  0  0
   38.5593  -27.8609   -5.4423 C   0  0  0  0  0  0
   39.7688  -28.3075   -4.6908 C   0  0  0  0  0  0
   37.8988  -27.6259   -6.7775 C   0  0  0  0  0  0
   37.5626  -26.9607   -5.5556 C   0  0  0  0  0  0
   36.7630  -28.0312   -5.6855 C   0  0  0  0  0  0
  1  2  1  0  0  0
  1  4  1  0  0  0
  1  5  1  0  0  0
  1  6  2  0  0  0
  2  4  1  0  0  0
  2  5  1  0  0  0
  3 18  1  0  0  0
  3  5  2  0  0  0
  4  6  1  0  0  0
  6  9  1  0  0  0
  7  8  1  0  0  0
  7 10  2  0  0  0
  7 12  1  0  0  0
  7 13  1  0  0  0
  8  9  2  0  0  0
  8 13  1  0  0  0
  8 14  1  0  0  0
  9 14  1  0  0  0
 10 11  1  0  0  0
 11 12  2  0  0  0
 12 13  1  0  0  0
 13 14  2  0  0  0
 15 16  1  0  0  0
 15 17  2  0  0  0
 15 18  1  0  0  0
 17 18  1  0  0  0
 17 19  1  0  0  0
 18 19  1  0  0  0
M  END
> <s_m_entry_id>
84

> <s_m_entry_name>
NEW-hitrmd-var4_2_lig_gen_fit_add_gna.sdf.5

> <minimizedAffinity>
-8.95941

> <minimizedRMSD>
0.68722

> <CNNscore>
0.4639957249

> <CNNaffinity>
5.9047880173

> <CNN_VS>
2.7397964001

> <CNNaffinity_variance>
0.0699688196

> <s_m_Source_Path>
C:\Users\maila\Downloads\mgr\NEW_model_var4_hitrmd

> <s_m_Source_File>
wzakresie-NEW_model_var4_hitrmd.mae

> <i_m_Source_File_Index>
3

> <s_user_SMILES>
CC1=C(C2)C12C=C3C([C]345)C5C=4C=6C7=[C]8([C]679)[C]=19C8=CC1

> <s_m_subgroup_title>
wzakresie-NEW_model_var4_hitrmd->NEW-hitrmd-var4_2_lig_gen_fit_add_gna

> <s_m_subgroupid>
wzakresie-NEW_model_var4_hitrmd->NEW-hitrmd-var4_2_lig_gen_fit_add_gna

> <b_m_subgroup_collapsed>
0

$$$$
C1=C2[C]1(C234)=C4C3=C=CC5CC6C5C6(C78)C79[C]8(=[C]129)[C]23=C1C=C3
                    3D
 Schrodinger Suite 2021-1.
 21 32  0  0  1  0            999 V2000
   34.1853  -24.7233  -13.3131 C   0  0  0  0  0  0
   33.0492  -24.1979  -12.7023 C   0  0  0  0  0  0
   33.9062  -23.4831  -11.7240 C   0  0  0  0  0  0
   35.0515  -24.1392  -12.2399 C   0  0  0  0  0  0
   36.4351  -23.7104   -7.8731 C   0  0  0  0  0  0
   34.6324  -24.5632  -10.8583 C   0  0  0  0  0  0
   33.6021  -23.7407  -10.2727 C   0  0  0  0  0  0
   35.2988  -23.1975   -7.0438 C   0  0  0  0  0  0
   35.8284  -23.9315   -5.8262 C   0  0  0  0  0  0
   35.0769  -23.6671   -9.7378 C   0  0  0  0  0  0
   34.0110  -23.0599   -8.9789 C   0  0  0  0  0  0
   34.9856  -24.0677   -8.2765 C   0  0  0  0  0  0
   37.0088  -24.4064   -6.6462 C   0  0  0  0  0  0
   39.1977  -27.1406   -5.9061 C   0  0  0  0  0  0
   40.2316  -29.3808   -6.6210 C   0  0  0  0  0  0
   37.0844  -25.8989   -6.7873 C   0  0  0  0  0  0
   41.1978  -28.5256   -6.0359 C   0  0  0  0  0  0
   39.9531  -28.3812   -5.4267 C   0  0  0  0  0  0
   38.1387  -26.5332   -6.3569 C   0  0  0  0  0  0
   40.6686  -27.1862   -5.5867 C   0  0  0  0  0  0
   40.9533  -29.6989   -5.3522 C   0  0  0  0  0  0
  1  2  2  0  0  0
  1  4  1  0  0  0
  2  3  1  0  0  0
  3  4  2  0  0  0
  3  6  1  0  0  0
  3  7  1  0  0  0
  4  6  1  0  0  0
  5  8  1  0  0  0
  5 12  1  0  0  0
  5 13  1  0  0  0
  6  7  2  0  0  0
  6 10  1  0  0  0
  7 10  1  0  0  0
  7 11  1  0  0  0
  8  9  1  0  0  0
  8 12  1  0  0  0
  9 13  1  0  0  0
 10 11  1  0  0  0
 10 12  1  0  0  0
 11 12  1  0  0  0
 13 16  1  0  0  0
 14 18  1  0  0  0
 14 19  2  0  0  0
 14 20  1  0  0  0
 15 17  1  0  0  0
 15 18  1  0  0  0
 15 21  2  0  0  0
 16 19  2  0  0  0
 17 18  1  0  0  0
 17 20  2  0  0  0
 17 21  1  0  0  0
 18 20  1  0  0  0
M  END
> <s_m_entry_id>
85

> <s_m_entry_name>
NEW-hitrmd-var4_2_lig_gen_fit_add_gna.sdf.6

> <minimizedAffinity>
-9.71896

> <minimizedRMSD>
1.091

> <CNNscore>
0.6018785238

> <CNNaffinity>
5.6845827103

> <CNN_VS>
3.4214282036

> <CNNaffinity_variance>
0.4118516445

> <s_m_Source_Path>
C:\Users\maila\Downloads\mgr\NEW_model_var4_hitrmd

> <s_m_Source_File>
wzakresie-NEW_model_var4_hitrmd.mae

> <i_m_Source_File_Index>
4

> <s_user_SMILES>
C1=C2[C]1(C234)=C4C3=C=CC5CC6C5C6(C78)C79[C]8(=[C]129)[C]23=C1C=C3

> <s_m_subgroup_title>
wzakresie-NEW_model_var4_hitrmd->NEW-hitrmd-var4_2_lig_gen_fit_add_gna

> <s_m_subgroupid>
wzakresie-NEW_model_var4_hitrmd->NEW-hitrmd-var4_2_lig_gen_fit_add_gna

> <b_m_subgroup_collapsed>
0

$$$$
C1C2=[C]3([C]=124)[C]45=[C]6(C35)C7C8(C7C6)C19C(C9C8)[C]2=3[C]4=5[C]2(CC13)=C4CC5
                    3D
 Schrodinger Suite 2021-1.
 23 36  0  0  1  0            999 V2000
   36.7682  -23.5930   -8.9036 C   0  0  0  0  0  0
   39.0828  -28.4641   -6.3189 C   0  0  0  0  0  0
   40.9402  -29.8868   -7.1095 C   0  0  0  0  0  0
   37.8239  -27.7906   -5.7804 C   0  0  0  0  0  0
   33.2542  -23.7045  -10.4934 C   0  0  0  0  0  0
   34.3477  -24.2127   -9.5641 C   0  0  0  0  0  0
   34.6441  -23.3638   -8.2874 C   0  0  0  0  0  0
   36.2335  -25.8437   -6.2407 C   0  0  0  0  0  0
   35.3024  -24.2637  -10.7277 C   0  0  0  0  0  0
   35.3039  -25.7031   -5.0843 C   0  0  0  0  0  0
   39.4726  -29.8785   -6.7084 C   0  0  0  0  0  0
   36.5616  -28.4421   -6.2624 C   0  0  0  0  0  0
   40.5914  -30.2279   -5.6865 C   0  0  0  0  0  0
   39.2610  -29.6525   -5.2849 C   0  0  0  0  0  0
   38.9830  -28.2307   -4.8741 C   0  0  0  0  0  0
   34.7037  -24.4390   -5.7788 C   0  0  0  0  0  0
   36.0508  -23.4725   -7.6281 C   0  0  0  0  0  0
   35.6472  -24.6973   -6.9491 C   0  0  0  0  0  0
   34.2236  -24.5107   -7.2528 C   0  0  0  0  0  0
   36.2568  -27.1347   -7.0181 C   0  0  0  0  0  0
   34.1743  -23.9308  -11.6774 C   0  0  0  0  0  0
   35.4940  -23.2529   -9.6252 C   0  0  0  0  0  0
   37.5796  -26.4783   -6.4607 C   0  0  0  0  0  0
  1 17  1  0  0  0
  1 22  1  0  0  0
  2  4  2  0  0  0
  2 11  1  0  0  0
  2 14  1  0  0  0
  2 15  1  0  0  0
  3 11  2  0  0  0
  3 13  1  0  0  0
  4 12  1  0  0  0
  4 15  1  0  0  0
  4 23  1  0  0  0
  5  6  2  0  0  0
  5 21  1  0  0  0
  6  7  1  0  0  0
  6  9  1  0  0  0
  6 22  1  0  0  0
  7 17  2  0  0  0
  7 19  1  0  0  0
  7 22  1  0  0  0
  8 10  1  0  0  0
  8 18  1  0  0  0
  8 20  1  0  0  0
  8 23  1  0  0  0
  9 21  1  0  0  0
  9 22  2  0  0  0
 10 16  1  0  0  0
 11 13  1  0  0  0
 11 14  1  0  0  0
 12 20  1  0  0  0
 13 14  2  0  0  0
 14 15  1  0  0  0
 16 18  1  0  0  0
 16 19  1  0  0  0
 17 18  1  0  0  0
 18 19  1  0  0  0
 20 23  1  0  0  0
M  END
> <s_m_entry_id>
86

> <s_m_entry_name>
NEW-hitrmd-var4_2_lig_gen_fit_add_gna.sdf.7

> <minimizedAffinity>
-9.9516

> <minimizedRMSD>
0.44406

> <CNNscore>
0.4161959887

> <CNNaffinity>
6.3367362022

> <CNN_VS>
2.6373240948

> <CNNaffinity_variance>
0.0292726364

> <s_m_Source_Path>
C:\Users\maila\Downloads\mgr\NEW_model_var4_hitrmd

> <s_m_Source_File>
wzakresie-NEW_model_var4_hitrmd.mae

> <i_m_Source_File_Index>
5

> <s_user_SMILES>
C1C2=[C]3([C]=124)[C]45=[C]6(C35)C7C8(C7C6)C19C(C9C8)[C]2=3[C]4=5[C]2(CC13)=C4CC5

> <s_m_subgroup_title>
wzakresie-NEW_model_var4_hitrmd->NEW-hitrmd-var4_2_lig_gen_fit_add_gna

> <s_m_subgroupid>
wzakresie-NEW_model_var4_hitrmd->NEW-hitrmd-var4_2_lig_gen_fit_add_gna

> <b_m_subgroup_collapsed>
0

$$$$
C1C=C2[C]=13[C]4(=[C]23C456)C67C5(C7C)CCC8C9=[C]18[C]2(=[C]139)C3=C2
                    3D
 Schrodinger Suite 2021-1.
 20 31  0  0  1  0            999 V2000
   34.2808  -24.6174  -12.5676 C   0  0  0  0  0  0
   34.2160  -23.4637  -10.8898 C   0  0  0  0  0  0
   34.2928  -23.4099   -5.6482 C   0  0  0  0  0  0
   35.0132  -24.6056  -10.2014 C   0  0  0  0  0  0
   35.2778  -24.0930  -11.5890 C   0  0  0  0  0  0
   33.2344  -24.1307  -11.7841 C   0  0  0  0  0  0
   34.1161  -23.7890   -9.4146 C   0  0  0  0  0  0
   34.4059  -24.1432   -6.9849 C   0  0  0  0  0  0
   35.7398  -24.3363   -7.6942 C   0  0  0  0  0  0
   34.7554  -23.2177   -8.1493 C   0  0  0  0  0  0
   35.6709  -23.8182   -9.1108 C   0  0  0  0  0  0
   37.0065  -23.7992   -7.0007 C   0  0  0  0  0  0
   37.4206  -24.6992   -5.8315 C   0  0  0  0  0  0
   37.7577  -27.2036   -7.2252 C   0  0  0  0  0  0
   35.1019  -28.1158   -5.6955 C   0  0  0  0  0  0
   35.8156  -28.8806   -6.7572 C   0  0  0  0  0  0
   36.3762  -27.4278   -6.4922 C   0  0  0  0  0  0
   36.4360  -28.4318   -5.5738 C   0  0  0  0  0  0
   37.5749  -27.4541   -5.8501 C   0  0  0  0  0  0
   37.3950  -26.1453   -6.2370 C   0  0  0  0  0  0
  1  5  2  0  0  0
  1  6  1  0  0  0
  2  4  1  0  0  0
  2  5  1  0  0  0
  2  6  2  0  0  0
  2  7  1  0  0  0
  3  8  1  0  0  0
  4  5  1  0  0  0
  4  7  2  0  0  0
  4 11  1  0  0  0
  7 10  1  0  0  0
  7 11  1  0  0  0
  8  9  1  0  0  0
  8 10  1  0  0  0
  9 12  1  0  0  0
  9 10  1  0  0  0
  9 11  1  0  0  0
 10 11  1  0  0  0
 12 13  1  0  0  0
 13 20  1  0  0  0
 14 17  1  0  0  0
 14 19  2  0  0  0
 14 20  1  0  0  0
 15 16  2  0  0  0
 15 18  1  0  0  0
 16 17  1  0  0  0
 16 18  1  0  0  0
 17 18  2  0  0  0
 17 19  1  0  0  0
 18 19  1  0  0  0
 19 20  1  0  0  0
M  END
> <s_m_entry_id>
87

> <s_m_entry_name>
NEW-hitrmd-var4_2_lig_gen_fit_add_gna.sdf.10

> <minimizedAffinity>
-8.53743

> <minimizedRMSD>
2.07196

> <CNNscore>
0.3922685981

> <CNNaffinity>
6.2199792862

> <CNN_VS>
2.439902544

> <CNNaffinity_variance>
0.1555871516

> <s_m_Source_Path>
C:\Users\maila\Downloads\mgr\NEW_model_var4_hitrmd

> <s_m_Source_File>
wzakresie-NEW_model_var4_hitrmd.mae

> <i_m_Source_File_Index>
6

> <s_user_SMILES>
C1C=C2[C]=13[C]4(=[C]23C456)C67C5(C7C)CCC8C9=[C]18[C]2(=[C]139)C3=C2

> <s_m_subgroup_title>
wzakresie-NEW_model_var4_hitrmd->NEW-hitrmd-var4_2_lig_gen_fit_add_gna

> <s_m_subgroupid>
wzakresie-NEW_model_var4_hitrmd->NEW-hitrmd-var4_2_lig_gen_fit_add_gna

> <b_m_subgroup_collapsed>
0

$$$$
C1CC1CCC(C)CC2C3C2C34C5=C6[C]7(=C45)C6C=C7
                    3D
 Schrodinger Suite 2021-1.
 19 25  0  0  1  0            999 V2000
  -32.1744   16.5470  -25.3931 C   0  0  0  0  0  0
  -33.3967   14.0739  -24.7997 C   0  0  0  0  0  0
  -32.2904   15.0704  -25.6215 C   0  0  0  0  0  0
  -32.1716   17.7190  -24.8604 C   0  0  0  0  0  0
  -33.9107   12.7888  -28.0870 C   0  0  0  0  0  0
  -34.2212   15.2811  -25.4185 C   0  0  0  0  0  0
  -32.9189   15.5122  -24.7551 C   0  0  0  0  0  0
  -34.2732   14.0602  -27.3514 C   0  0  0  0  0  0
  -32.9309   16.8411  -23.8643 C   0  0  0  0  0  0
  -33.3072   14.3764  -26.1382 C   0  0  0  0  0  0
  -33.7344   12.9169  -26.5973 C   0  0  0  0  0  0
  -32.5725   12.7244  -28.8240 C   0  0  0  0  0  0
  -31.9538   11.3004  -28.8204 C   0  0  0  0  0  0
  -32.9660   10.2392  -29.2857 C   0  0  0  0  0  0
  -30.7005   11.2643  -29.7188 C   0  0  0  0  0  0
  -29.9126   12.5807  -29.6847 C   0  0  0  0  0  0
  -28.3015   14.0060  -31.1110 C   0  0  0  0  0  0
  -29.6887   14.1298  -31.7217 C   0  0  0  0  0  0
  -29.2623   12.8329  -31.0486 C   0  0  0  0  0  0
  1  3  1  0  0  0
  1  4  1  0  0  0
  1  7  1  0  0  0
  2  3  2  0  0  0
  2  6  1  0  0  0
  2 10  1  0  0  0
  3  7  1  0  0  0
  4  9  2  0  0  0
  5 12  1  0  0  0
  5  8  1  0  0  0
  5 11  1  0  0  0
  6  7  2  0  0  0
  6 10  1  0  0  0
  7  9  1  0  0  0
  8 10  1  0  0  0
  8 11  1  0  0  0
 10 11  1  0  0  0
 12 13  1  0  0  0
 13 14  1  0  0  0
 13 15  1  0  0  0
 15 16  1  0  0  0
 16 19  1  0  0  0
 17 18  1  0  0  0
 17 19  1  0  0  0
 18 19  1  0  0  0
M  END
> <s_m_entry_id>
88

> <s_m_entry_name>
NEW-hitrmd-var4_3_lig_gen_fit_add_gna.sdf.4

> <minimizedAffinity>
-8.25819

> <minimizedRMSD>
0.52125

> <CNNscore>
0.3517475724

> <CNNaffinity>
5.7804923058

> <CNN_VS>
2.0332741737

> <CNNaffinity_variance>
0.74347049

> <s_m_Source_Path>
C:\Users\maila\Downloads\mgr\NEW_model_var4_hitrmd

> <s_m_Source_File>
wzakresie-NEW_model_var4_hitrmd.mae

> <i_m_Source_File_Index>
7

> <s_user_SMILES>
C1CC1CCC(C)CC2C3C2C34C5=C6[C]7(=C45)C6C=C7

> <s_m_subgroup_title>
wzakresie-NEW_model_var4_hitrmd->NEW-hitrmd-var4_3_lig_gen_fit_add_gna

> <s_m_subgroupid>
wzakresie-NEW_model_var4_hitrmd->NEW-hitrmd-var4_3_lig_gen_fit_add_gna

> <b_m_subgroup_collapsed>
0

$$$$
[C@]123C(=C2)C1=C(C)C3=C=CC[C@H](C4)C[C@]4(C5)C56[C@@H]7[C@H]6C7
                    3D
 Schrodinger Suite 2021-1.
 19 25  0  0  1  0            999 V2000
  -33.5918   12.1634  -27.0375 C   0  0  0  0  0  0
  -35.7350   17.2039  -25.0956 C   0  0  0  0  0  0
  -34.3925   17.8569  -25.1518 C   0  0  0  0  0  0
  -34.5264   16.3261  -24.9621 C   0  0  1  0  0  0
  -31.7699   15.1590  -25.1459 C   0  0  0  0  0  0
  -34.1844   14.5219  -26.8765 C   0  0  0  0  0  0
  -34.2330   13.4124  -27.5716 C   0  0  0  0  0  0
  -33.2648   17.0308  -24.6400 C   0  0  0  0  0  0
  -32.6593   16.2168  -25.7195 C   0  0  0  0  0  0
  -33.9650   15.6131  -26.1884 C   0  0  0  0  0  0
  -28.2446   13.7417  -31.1928 C   0  0  0  0  0  0
  -29.7340   13.7365  -31.4391 C   0  0  2  0  0  0
  -29.2088   13.3509  -30.0971 C   0  0  1  0  0  0
  -30.4276   12.5784  -30.6682 C   0  0  3  0  0  0
  -32.1733   11.8613  -27.5700 C   0  0  2  0  0  0
  -31.3624   13.0865  -28.0498 C   0  0  0  0  0  0
  -31.3159   12.4144  -29.4070 C   0  0  1  0  0  0
  -31.8807   13.1447  -30.5597 C   0  0  0  0  0  0
  -32.1064   11.2039  -28.9670 C   0  0  0  0  0  0
  1  7  1  0  0  0
  1 15  1  0  0  0
  2  3  2  0  0  0
  2  4  1  0  0  0
  3  4  1  0  0  0
  3  8  1  0  0  0
  4  8  1  0  0  0
  4 10  1  0  0  0
  5  9  1  0  0  0
  6  7  2  0  0  0
  6 10  2  0  0  0
  8  9  2  0  0  0
  9 10  1  0  0  0
 11 12  1  0  0  0
 11 13  1  0  0  0
 12 13  1  0  0  0
 12 14  1  0  0  0
 13 14  1  0  0  0
 14 17  1  0  0  0
 14 18  1  0  0  0
 15 16  1  0  0  0
 15 19  1  0  0  0
 16 17  1  0  0  0
 17 18  1  0  0  0
 17 19  1  0  0  0
M  END
> <s_m_entry_id>
89

> <s_m_entry_name>
NEW-hitrmd-var4_3_lig_gen_fit_add_gna.sdf.5

> <minimizedAffinity>
-9.17649

> <minimizedRMSD>
0.9727

> <CNNscore>
0.2541162074

> <CNNaffinity>
6.1968240738

> <CNN_VS>
1.5747134686

> <CNNaffinity_variance>
0.1078227907

> <s_m_Source_Path>
C:\Users\maila\Downloads\mgr\NEW_model_var4_hitrmd

> <s_m_Source_File>
wzakresie-NEW_model_var4_hitrmd.mae

> <i_m_Source_File_Index>
8

> <s_user_SMILES>
[C@]123C(=C2)C1=C(C)C3=C=CC[C@H](C4)C[C@]4(C5)C56[C@@H]7[C@H]6C7

> <s_m_subgroup_title>
wzakresie-NEW_model_var4_hitrmd->NEW-hitrmd-var4_3_lig_gen_fit_add_gna

> <s_m_subgroupid>
wzakresie-NEW_model_var4_hitrmd->NEW-hitrmd-var4_3_lig_gen_fit_add_gna

> <b_m_subgroup_collapsed>
0

$$$$
[C]123=[C]4(C3)[C]1(=C2)C=C4C#CCC5=C6C(=[C]567)C7C=C8C(C89)C9
                    3D
 Schrodinger Suite 2021-1.
 20 28  0  0  1  0            999 V2000
  -37.0605   24.9147   -6.3084 C   0  0  0  0  0  0
  -37.5163   23.6144   -7.1074 C   0  0  0  0  0  0
  -36.0348   23.7512   -6.9726 C   0  0  0  0  0  0
  -36.7778   24.6801   -7.6627 C   0  0  0  0  0  0
  -36.7105   26.0902   -7.1332 C   0  0  0  0  0  0
  -39.1038   29.3029   -7.2062 C   0  0  0  0  0  0
  -39.5227   29.8170   -5.8570 C   0  0  0  0  0  0
  -38.2373   28.0417   -7.1716 C   0  0  0  0  0  0
  -37.8227   26.9094   -7.7334 C   0  0  0  0  0  0
  -38.2065   29.1145   -6.0785 C   0  0  0  0  0  0
  -34.7172   23.0491   -6.8468 C   0  0  0  0  0  0
  -34.2244   22.8607   -8.2072 C   0  0  0  0  0  0
  -33.9628   22.8140   -9.3797 C   0  0  0  0  0  0
  -33.7921   23.0463  -12.8399 C   0  0  0  0  0  0
  -33.9602   24.2127  -13.8223 C   0  0  0  0  0  0
  -34.3863   24.3716  -12.4085 C   0  0  0  0  0  0
  -34.8259   23.0070  -11.8938 C   0  0  0  0  0  0
  -32.7883   22.9188  -11.7428 C   0  0  0  0  0  0
  -33.8318   22.8665  -10.8026 C   0  0  0  0  0  0
  -35.7991   24.1781  -12.0005 C   0  0  0  0  0  0
  1  2  1  0  0  0
  1  4  2  0  0  0
  1  5  1  0  0  0
  2  3  2  0  0  0
  2  4  1  0  0  0
  3  4  1  0  0  0
  3 11  1  0  0  0
  4  5  1  0  0  0
  5  9  1  0  0  0
  6  7  1  0  0  0
  6  8  1  0  0  0
  6 10  1  0  0  0
  7 10  1  0  0  0
  8  9  2  0  0  0
  8 10  1  0  0  0
 11 12  1  0  0  0
 12 13  3  0  0  0
 13 19  1  0  0  0
 14 15  2  0  0  0
 14 16  1  0  0  0
 14 17  1  0  0  0
 14 18  1  0  0  0
 15 16  1  0  0  0
 16 17  2  0  0  0
 16 20  1  0  0  0
 17 19  1  0  0  0
 17 20  1  0  0  0
 18 19  2  0  0  0
M  END
> <s_m_entry_id>
90

> <s_m_entry_name>
NEW-hitrmd-var4_4_lig_gen_fit_add_gna.sdf.10

> <minimizedAffinity>
-9.44812

> <minimizedRMSD>
0.91966

> <CNNscore>
0.4406090379

> <CNNaffinity>
5.5805006027

> <CNN_VS>
2.4588189125

> <CNNaffinity_variance>
0.3803361058

> <s_m_Source_Path>
C:\Users\maila\Downloads\mgr\NEW_model_var4_hitrmd

> <s_m_Source_File>
wzakresie-NEW_model_var4_hitrmd.mae

> <i_m_Source_File_Index>
9

> <s_user_SMILES>
[C]123=[C]4(C3)[C]1(=C2)C=C4C#CCC5=C6C(=[C]567)C7C=C8C(C89)C9

> <s_m_subgroup_title>
wzakresie-NEW_model_var4_hitrmd->NEW-hitrmd-var4_4_lig_gen_fit_add_gna

> <s_m_subgroupid>
wzakresie-NEW_model_var4_hitrmd->NEW-hitrmd-var4_4_lig_gen_fit_add_gna

> <b_m_subgroup_collapsed>
0

$$$$
C1=2C3=C[C]4([C]23[C]156)=C6C=5C7(C4C)C89C1(C9)C(C78)C1C1CC1
                    3D
 Schrodinger Suite 2021-1.
 20 30  0  0  1  0            999 V2000
  -25.4580   68.8400 -127.0685 C   0  0  0  0  0  0
  -24.5958   67.9726 -127.9902 C   0  0  0  0  0  0
  -25.7100   68.8212 -128.4233 C   0  0  0  0  0  0
  -25.7154   70.1939 -127.8167 C   0  0  0  0  0  0
  -27.7107   69.6895 -133.3260 C   0  0  0  0  0  0
  -26.2858   71.5825 -132.7071 C   0  0  0  0  0  0
  -24.4249   70.5280 -128.5821 C   0  0  0  0  0  0
  -25.6707   71.1804 -129.0277 C   0  0  0  0  0  0
  -28.0302   69.7009 -131.8657 C   0  0  0  0  0  0
  -24.7806   69.6010 -130.7409 C   0  0  0  0  0  0
  -26.8692   71.4912 -131.3211 C   0  0  0  0  0  0
  -23.5277   68.0441 -128.7159 C   0  0  0  0  0  0
  -24.4526   69.2134 -129.2777 C   0  0  0  0  0  0
  -25.8742   70.6691 -130.4721 C   0  0  0  0  0  0
  -27.2804   70.1695 -130.6400 C   0  0  0  0  0  0
  -27.6889   71.0371 -132.5937 C   0  0  0  0  0  0
  -23.5447   70.2568 -131.4002 C   0  0  0  0  0  0
  -26.5767   68.4290 -135.2343 C   0  0  0  0  0  0
  -27.0142   67.3923 -134.2226 C   0  0  0  0  0  0
  -26.5506   68.7617 -133.7448 C   0  0  0  0  0  0
  1  2  1  0  0  0
  1  3  2  0  0  0
  1  4  1  0  0  0
  2  3  1  0  0  0
  2 12  2  0  0  0
  3  4  1  0  0  0
  3 13  1  0  0  0
  4  7  1  0  0  0
  4  8  2  0  0  0
  5  9  1  0  0  0
  5 16  1  0  0  0
  5 20  1  0  0  0
  6 11  1  0  0  0
  6 16  1  0  0  0
  7  8  1  0  0  0
  7 13  2  0  0  0
  8 14  1  0  0  0
  9 15  1  0  0  0
  9 16  1  0  0  0
 10 13  1  0  0  0
 10 14  1  0  0  0
 10 17  1  0  0  0
 11 14  1  0  0  0
 11 15  1  0  0  0
 11 16  1  0  0  0
 12 13  1  0  0  0
 14 15  1  0  0  0
 18 19  1  0  0  0
 18 20  1  0  0  0
 19 20  1  0  0  0
M  END
> <s_m_entry_id>
91

> <s_m_entry_name>
NEW-hitrmd-var4_5_lig_gen_fit_add_gna.sdf.6

> <minimizedAffinity>
-8.29976

> <minimizedRMSD>
0.59212

> <CNNscore>
0.2192271352

> <CNNaffinity>
6.1409730911

> <CNN_VS>
1.3462679386

> <CNNaffinity_variance>
0.0499408878

> <s_m_Source_Path>
C:\Users\maila\Downloads\mgr\NEW_model_var4_hitrmd

> <s_m_Source_File>
wzakresie-NEW_model_var4_hitrmd.mae

> <i_m_Source_File_Index>
10

> <s_user_SMILES>
C1=2C3=C[C]4([C]23[C]156)=C6C=5C7(C4C)C89C1(C9)C(C78)C1C1CC1

> <s_m_subgroup_title>
wzakresie-NEW_model_var4_hitrmd->NEW-hitrmd-var4_5_lig_gen_fit_add_gna

> <s_m_subgroupid>
wzakresie-NEW_model_var4_hitrmd->NEW-hitrmd-var4_5_lig_gen_fit_add_gna

> <b_m_subgroup_collapsed>
0

$$$$
C1=2C(C2)C1=C=CC=3C4[C]([C]345)(=C5C)CCCC(C6C7)C(=C8)[C]69=[C]7([C]=189)C1
                    3D
 Schrodinger Suite 2021-1.
 24 33  0  0  1  0            999 V2000
   25.1124   39.5741   -4.7825 C   0  0  0  0  0  0
   24.9318   41.0226   -5.1459 C   0  0  0  0  0  0
   25.5742   40.6322   -3.7929 C   0  0  0  0  0  0
   25.9841   41.8958   -4.5290 C   0  0  0  0  0  0
   26.0381   41.5886   -6.0333 C   0  0  0  0  0  0
   25.5724   42.6402   -7.0373 C   0  0  0  0  0  0
   25.7486   34.4496   -3.3237 C   0  0  0  0  0  0
   24.1300   36.3677   -3.6697 C   0  0  0  0  0  0
   24.5481   34.9548   -4.0816 C   0  0  0  0  0  0
   24.7089   35.3413   -2.6999 C   0  0  0  0  0  0
   23.9735   37.6151   -3.9940 C   0  0  0  0  0  0
   23.8844   38.8760   -4.3109 C   0  0  0  0  0  0
   25.3606   43.2359   -4.0546 C   0  0  0  0  0  0
   26.1730   44.1253   -3.0678 C   0  0  0  0  0  0
   25.5810   44.1748   -1.6574 C   0  0  0  0  0  0
   21.5073   43.9530    0.4902 C   0  0  0  0  0  0
   22.5412   45.0667    0.7989 C   0  0  0  0  0  0
   22.6534   44.2194   -0.4031 C   0  0  0  0  0  0
   23.9939   44.9564    1.2805 C   0  0  0  0  0  0
   23.0222   45.7882   -0.3907 C   0  0  0  0  0  0
   24.8546   45.5090   -1.3774 C   0  0  0  0  0  0
   22.4766   44.3624   -1.8863 C   0  0  0  0  0  0
   24.4520   45.8501    0.0908 C   0  0  0  0  0  0
   23.3786   45.5651   -1.8362 C   0  0  0  0  0  0
  1  2  2  0  0  0
  1  3  1  0  0  0
  1 12  1  0  0  0
  2  3  1  0  0  0
  2  4  1  0  0  0
  2  5  1  0  0  0
  3  4  1  0  0  0
  4  5  2  0  0  0
  4 13  1  0  0  0
  5  6  1  0  0  0
  7  9  2  0  0  0
  7 10  1  0  0  0
  8  9  1  0  0  0
  8 10  1  0  0  0
  8 11  2  0  0  0
  9 10  1  0  0  0
 11 12  2  0  0  0
 13 14  1  0  0  0
 14 15  1  0  0  0
 15 21  1  0  0  0
 16 17  2  0  0  0
 16 18  1  0  0  0
 17 18  1  0  0  0
 17 19  1  0  0  0
 17 20  1  0  0  0
 18 20  2  0  0  0
 18 22  1  0  0  0
 19 23  2  0  0  0
 20 23  1  0  0  0
 20 24  1  0  0  0
 21 23  1  0  0  0
 21 24  1  0  0  0
 22 24  1  0  0  0
M  END
> <s_m_entry_id>
92

> <s_m_entry_name>
NEW-hitrmd-var4_7_lig_gen_fit_add_gna.sdf.8

> <minimizedAffinity>
-8.61223

> <minimizedRMSD>
2.35585

> <CNNscore>
0.1497819722

> <CNNaffinity>
5.6889705658

> <CNN_VS>
0.8521052599

> <CNNaffinity_variance>
0.2455979884

> <s_m_Source_Path>
C:\Users\maila\Downloads\mgr\NEW_model_var4_hitrmd

> <s_m_Source_File>
wzakresie-NEW_model_var4_hitrmd.mae

> <i_m_Source_File_Index>
11

> <s_user_SMILES>
C1=2C(C2)C1=C=CC=3C4[C]([C]345)(=C5C)CCCC(C6C7)C(=C8)[C]69=[C]7([C]=189)C1

> <s_m_subgroup_title>
wzakresie-NEW_model_var4_hitrmd->NEW-hitrmd-var4_7_lig_gen_fit_add_gna

> <s_m_subgroupid>
wzakresie-NEW_model_var4_hitrmd->NEW-hitrmd-var4_7_lig_gen_fit_add_gna

> <b_m_subgroup_collapsed>
0

$$$$
C1=C2[C]3(=[C]124)C4(C=C3)CC5C(C6)C56CC7C8[C]79=C1[C]2(=[C]189)CC2
                    3D
 Schrodinger Suite 2021-1.
 21 31  0  0  1  0            999 V2000
   42.9555    6.4626   10.5402 C   0  0  0  0  0  0
   43.6635    6.6804    8.0998 C   0  0  0  0  0  0
   43.7424    7.2371    9.5117 C   0  0  0  0  0  0
   42.5935    6.2584    9.0890 C   0  0  0  0  0  0
   44.9220    5.8437    7.7940 C   0  0  0  0  0  0
   44.0551    2.9657    8.6433 C   0  0  0  0  0  0
   44.4920    2.0701    7.5384 C   0  0  0  0  0  0
   43.9421    3.3579    7.3334 C   0  0  0  0  0  0
   45.3057    3.4350    7.6112 C   0  0  0  0  0  0
   44.7483    4.5653    6.9281 C   0  0  0  0  0  0
   46.2767    3.2866    6.4742 C   0  0  0  0  0  0
   45.7362    4.3735    5.8252 C   0  0  0  0  0  0
   43.3659    8.7377    9.5150 C   0  0  0  0  0  0
   45.1133    9.3237   11.4949 C   0  0  0  0  0  0
   46.2315    8.5875   10.7953 C   0  0  0  0  0  0
   47.2041   10.4015    8.7770 C   0  0  0  0  0  0
   47.2251    9.4219    9.9789 C   0  0  0  0  0  0
   46.2691   10.1019   10.9956 C   0  0  0  0  0  0
   46.8349    8.9934    8.5433 C   0  0  0  0  0  0
   44.8683   10.5651   10.5977 C   0  0  0  0  0  0
   43.7855    9.5219   10.7753 C   0  0  0  0  0  0
  1  3  1  0  0  0
  1  4  1  0  0  0
  2  5  1  0  0  0
  2  3  1  0  0  0
  2  4  1  0  0  0
  3 13  1  0  0  0
  3  4  1  0  0  0
  5 10  1  0  0  0
  6  7  2  0  0  0
  6  8  1  0  0  0
  7  8  1  0  0  0
  7  9  1  0  0  0
  8  9  2  0  0  0
  8 10  1  0  0  0
  9 10  1  0  0  0
  9 11  1  0  0  0
 10 12  1  0  0  0
 11 12  2  0  0  0
 13 21  1  0  0  0
 14 15  2  0  0  0
 14 18  1  0  0  0
 14 20  1  0  0  0
 14 21  1  0  0  0
 15 17  1  0  0  0
 15 18  1  0  0  0
 16 17  1  0  0  0
 16 19  1  0  0  0
 17 18  2  0  0  0
 17 19  1  0  0  0
 18 20  1  0  0  0
 20 21  1  0  0  0
M  END
> <s_m_entry_id>
93

> <s_m_entry_name>
NEW-hitrmd-var4_15_lig_gen_fit_add_gna.sdf.10

> <minimizedAffinity>
-8.08986

> <minimizedRMSD>
0.33619

> <CNNscore>
0.2015524805

> <CNNaffinity>
5.9191970825

> <CNN_VS>
1.1930288076

> <CNNaffinity_variance>
0.0803437084

> <s_m_Source_Path>
C:\Users\maila\Downloads\mgr\NEW_model_var4_hitrmd

> <s_m_Source_File>
wzakresie-NEW_model_var4_hitrmd.mae

> <i_m_Source_File_Index>
12

> <s_user_SMILES>
C1=C2[C]3(=[C]124)C4(C=C3)CC5C(C6)C56CC7C8[C]79=C1[C]2(=[C]189)CC2

> <s_m_subgroup_title>
wzakresie-NEW_model_var4_hitrmd->NEW-hitrmd-var4_15_lig_gen_fit_add_gna

> <s_m_subgroupid>
wzakresie-NEW_model_var4_hitrmd->NEW-hitrmd-var4_15_lig_gen_fit_add_gna

> <b_m_subgroup_collapsed>
0

$$$$
[C]12=3C(=C2)C(=C1C3)CCC4(C(C56)C4)C5=[C]6(C7)[C]7([C]189)=C8C=9C1C
                    3D
 Schrodinger Suite 2021-1.
 21 30  0  0  1  0            999 V2000
  -14.8407   46.2307  -10.4502 C   0  0  0  0  0  0
  -15.1370   43.4127  -10.3519 C   0  0  0  0  0  0
  -14.4772   44.8054   -9.9715 C   0  0  0  0  0  0
  -15.5423   47.0271   -9.3834 C   0  0  0  0  0  0
  -14.8427   42.5688   -9.0847 C   0  0  0  0  0  0
  -15.7098   45.5373   -9.4324 C   0  0  0  0  0  0
  -14.6633   39.9604   -9.1270 C   0  0  0  0  0  0
  -16.7412   46.3711   -7.2163 C   0  0  0  0  0  0
  -15.4999   46.2321   -8.0942 C   0  0  0  0  0  0
  -14.9085   40.8218  -10.3409 C   0  0  0  0  0  0
  -15.5290   41.2016   -8.9986 C   0  0  0  0  0  0
  -14.3802   44.2172  -11.3597 C   0  0  0  0  0  0
  -14.2176   42.1660  -10.3682 C   0  0  0  0  0  0
  -17.0651   41.0531   -9.0250 C   0  0  0  0  0  0
  -17.6689   41.4438   -7.6750 C   0  0  0  0  0  0
  -20.9772   41.1708   -6.9586 C   0  0  0  0  0  0
  -21.3660   39.9353   -7.4782 C   0  0  0  0  0  0
  -20.0236   40.4718   -7.6888 C   0  0  0  0  0  0
  -20.8627   41.3754   -5.5595 C   0  0  0  0  0  0
  -19.7401   40.8851   -6.3077 C   0  0  0  0  0  0
  -18.6450   40.3731   -7.1766 C   0  0  0  0  0  0
  1  3  2  0  0  0
  1  4  1  0  0  0
  1  6  1  0  0  0
  2  3  1  0  0  0
  2  5  2  0  0  0
  2 12  1  0  0  0
  2 13  1  0  0  0
  3  6  1  0  0  0
  3 12  1  0  0  0
  4  6  2  0  0  0
  4  9  1  0  0  0
  5 11  1  0  0  0
  5 13  1  0  0  0
  6  9  1  0  0  0
  7 10  1  0  0  0
  7 11  1  0  0  0
  8  9  1  0  0  0
 10 11  1  0  0  0
 10 13  1  0  0  0
 11 14  1  0  0  0
 14 15  1  0  0  0
 15 21  1  0  0  0
 16 17  2  0  0  0
 16 18  1  0  0  0
 16 19  1  0  0  0
 16 20  1  0  0  0
 17 18  1  0  0  0
 18 21  2  0  0  0
 19 20  2  0  0  0
 20 21  1  0  0  0
M  END
> <s_m_entry_id>
94

> <s_m_entry_name>
NEW-hitrmd-var4_16_lig_gen_fit_add_gna.sdf.4

> <minimizedAffinity>
-9.12643

> <minimizedRMSD>
0.84888

> <CNNscore>
0.2509898245

> <CNNaffinity>
5.9253826141

> <CNN_VS>
1.4872107506

> <CNNaffinity_variance>
0.0498170704

> <s_m_Source_Path>
C:\Users\maila\Downloads\mgr\NEW_model_var4_hitrmd

> <s_m_Source_File>
wzakresie-NEW_model_var4_hitrmd.mae

> <i_m_Source_File_Index>
13

> <s_user_SMILES>
[C]12=3C(=C2)C(=C1C3)CCC4(C(C56)C4)C5=[C]6(C7)[C]7([C]189)=C8C=9C1C

> <s_m_subgroup_title>
wzakresie-NEW_model_var4_hitrmd->NEW-hitrmd-var4_16_lig_gen_fit_add_gna

> <s_m_subgroupid>
wzakresie-NEW_model_var4_hitrmd->NEW-hitrmd-var4_16_lig_gen_fit_add_gna

> <b_m_subgroup_collapsed>
0

$$$$
[C]123=[C]45[C]3(=C4C5)C2=C1CC(C67C(C6)C7)CC(C8=C9C128)CCC2=C19
                    3D
 Schrodinger Suite 2021-1.
 22 32  0  0  1  0            999 V2000
  -15.2233   41.3729   -9.7551 C   0  0  0  0  0  0
  -14.9121   39.8358  -11.8697 C   0  0  0  0  0  0
  -16.3286   40.3558  -11.9810 C   0  0  0  0  0  0
  -15.7048   40.1597  -10.6015 C   0  0  0  0  0  0
  -14.7161   39.0365  -10.5996 C   0  0  0  0  0  0
  -15.8459   41.2000   -8.3273 C   0  0  0  0  0  0
  -18.1051   41.7354   -7.1389 C   0  0  0  0  0  0
  -20.6202   41.0675   -6.4749 C   0  0  0  0  0  0
  -19.0408   41.0557   -6.1725 C   0  0  0  0  0  0
  -19.8338   40.3660   -7.5148 C   0  0  0  0  0  0
  -19.3629   39.3606   -8.5011 C   0  0  0  0  0  0
  -17.8225   39.4399   -8.3544 C   0  0  0  0  0  0
  -19.6262   41.6900   -7.2591 C   0  0  0  0  0  0
  -17.3823   40.9381   -8.3105 C   0  0  0  0  0  0
  -15.4998   42.7188  -10.4641 C   0  0  0  0  0  0
  -15.1821   47.0862   -9.6423 C   0  0  0  0  0  0
  -13.8865   44.8647   -9.3932 C   0  0  0  0  0  0
  -15.0121   43.9531   -9.7645 C   0  0  0  0  0  0
  -15.1924   45.5903   -9.9208 C   0  0  0  0  0  0
  -15.1383   44.8567   -8.7262 C   0  0  0  0  0  0
  -16.0015   46.1101   -8.8252 C   0  0  0  0  0  0
  -15.3500   47.3183   -8.1659 C   0  0  0  0  0  0
  1  6  1  0  0  0
  1  4  1  0  0  0
  1 15  1  0  0  0
  2  3  1  0  0  0
  2  4  1  0  0  0
  2  5  1  0  0  0
  3  4  1  0  0  0
  4  5  1  0  0  0
  6 14  1  0  0  0
  7  9  2  0  0  0
  7 13  1  0  0  0
  7 14  1  0  0  0
  8  9  1  0  0  0
  8 10  2  0  0  0
  8 13  1  0  0  0
  9 13  1  0  0  0
 10 11  1  0  0  0
 10 13  1  0  0  0
 11 12  1  0  0  0
 12 14  1  0  0  0
 15 18  1  0  0  0
 16 19  2  0  0  0
 16 21  1  0  0  0
 16 22  1  0  0  0
 17 18  2  0  0  0
 17 19  1  0  0  0
 17 20  1  0  0  0
 18 20  1  0  0  0
 19 20  1  0  0  0
 19 21  1  0  0  0
 20 21  2  0  0  0
 21 22  1  0  0  0
M  END
> <s_m_entry_id>
95

> <s_m_entry_name>
NEW-hitrmd-var4_16_lig_gen_fit_add_gna.sdf.7

> <minimizedAffinity>
-8.53172

> <minimizedRMSD>
0.49088

> <CNNscore>
0.3887274265

> <CNNaffinity>
6.4370245934

> <CNN_VS>
2.5022480488

> <CNNaffinity_variance>
0.0530703254

> <s_m_Source_Path>
C:\Users\maila\Downloads\mgr\NEW_model_var4_hitrmd

> <s_m_Source_File>
wzakresie-NEW_model_var4_hitrmd.mae

> <i_m_Source_File_Index>
14

> <s_user_SMILES>
[C]123=[C]45[C]3(=C4C5)C2=C1CC(C67C(C6)C7)CC(C8=C9C128)CCC2=C19

> <s_m_subgroup_title>
wzakresie-NEW_model_var4_hitrmd->NEW-hitrmd-var4_16_lig_gen_fit_add_gna

> <s_m_subgroupid>
wzakresie-NEW_model_var4_hitrmd->NEW-hitrmd-var4_16_lig_gen_fit_add_gna

> <b_m_subgroup_collapsed>
0

$$$$
C1=[C]2(C3)[C]14=[C]25C=3[C]6(=[C]457)C7(CC)C6[C]8(C9=[C]128)=C1C2=C9C
                    3D
 Schrodinger Suite 2021-1.
 19 29  0  0  1  0            999 V2000
  -20.4179   41.5843   -6.3970 C   0  0  0  0  0  0
  -21.3078   40.3410   -6.5765 C   0  0  0  0  0  0
  -19.5145   41.6650   -7.5545 C   0  0  0  0  0  0
  -19.8629   40.2791   -6.9013 C   0  0  0  0  0  0
  -19.0385   40.4125   -8.1397 C   0  0  0  0  0  0
  -17.7088   40.6266   -7.3503 C   0  0  0  0  0  0
  -19.2504   41.9030   -5.4809 C   0  0  0  0  0  0
  -18.3027   41.9323   -6.7317 C   0  0  0  0  0  0
  -17.7035   40.5099   -8.8794 C   0  0  0  0  0  0
  -16.4512   40.9603   -8.1574 C   0  0  0  0  0  0
  -15.3715   42.3721  -10.1028 C   0  0  0  0  0  0
  -14.6818   44.4557   -8.7946 C   0  0  0  0  0  0
  -14.2697   43.4233   -9.8526 C   0  0  0  0  0  0
  -16.1009   42.3401   -8.7553 C   0  0  0  0  0  0
  -14.6198   42.3682   -8.8354 C   0  0  0  0  0  0
  -15.6905   45.4908   -9.2873 C   0  0  0  0  0  0
  -15.3018   43.3534   -7.9229 C   0  0  0  0  0  0
  -17.3548   39.2571  -11.0108 C   0  0  0  0  0  0
  -17.4546   39.1336   -9.4991 C   0  0  0  0  0  0
  1  2  2  0  0  0
  1  3  1  0  0  0
  1  4  1  0  0  0
  1  7  1  0  0  0
  2  4  1  0  0  0
  3  4  2  0  0  0
  3  5  1  0  0  0
  3  8  1  0  0  0
  4  5  1  0  0  0
  5  6  2  0  0  0
  5  9  1  0  0  0
  6  8  1  0  0  0
  6  9  1  0  0  0
  6 10  1  0  0  0
  7  8  2  0  0  0
  9 19  1  0  0  0
  9 10  1  0  0  0
 10 14  1  0  0  0
 11 13  1  0  0  0
 11 14  2  0  0  0
 11 15  1  0  0  0
 12 13  2  0  0  0
 12 16  1  0  0  0
 12 17  1  0  0  0
 13 15  1  0  0  0
 14 15  1  0  0  0
 14 17  1  0  0  0
 15 17  2  0  0  0
 18 19  1  0  0  0
M  END
> <s_m_entry_id>
96

> <s_m_entry_name>
NEW-hitrmd-var4_16_lig_gen_fit_add_gna.sdf.10

> <minimizedAffinity>
-8.07655

> <minimizedRMSD>
0.69353

> <CNNscore>
0.3859517574

> <CNNaffinity>
5.6828222275

> <CNN_VS>
2.1932952404

> <CNNaffinity_variance>
0.0885602385

> <s_m_Source_Path>
C:\Users\maila\Downloads\mgr\NEW_model_var4_hitrmd

> <s_m_Source_File>
wzakresie-NEW_model_var4_hitrmd.mae

> <i_m_Source_File_Index>
15

> <s_user_SMILES>
C1=[C]2(C3)[C]14=[C]25C=3[C]6(=[C]457)C7(CC)C6[C]8(C9=[C]128)=C1C2=C9C

> <s_m_subgroup_title>
wzakresie-NEW_model_var4_hitrmd->NEW-hitrmd-var4_16_lig_gen_fit_add_gna

> <s_m_subgroupid>
wzakresie-NEW_model_var4_hitrmd->NEW-hitrmd-var4_16_lig_gen_fit_add_gna

> <b_m_subgroup_collapsed>
0

$$$$
C1=C2C=CC(C123)=C3C(C4C(C45)C5)C[C]67=C8C6=C8C=C7
                    3D
 Schrodinger Suite 2021-1.
 19 26  0  0  1  0            999 V2000
  -15.9596   40.5130   -8.4683 C   0  0  0  0  0  0
  -15.9022   45.3563   -8.6258 C   0  0  0  0  0  0
  -16.3297   44.5717   -7.6405 C   0  0  0  0  0  0
  -14.8568   43.3911  -10.4411 C   0  0  0  0  0  0
  -15.8425   43.3189   -8.2094 C   0  0  0  0  0  0
  -15.6019   41.9718   -8.6313 C   0  0  0  0  0  0
  -15.3140   44.2821   -9.4203 C   0  0  0  0  0  0
  -14.7758   43.0340   -9.0767 C   0  0  0  0  0  0
  -16.0705   39.6296   -9.7412 C   0  0  0  0  0  0
  -15.3506   39.6086  -12.1361 C   0  0  0  0  0  0
  -16.2424   40.2654  -11.1065 C   0  0  0  0  0  0
  -14.8892   39.6623  -10.6962 C   0  0  0  0  0  0
  -17.1054   40.3395   -7.3943 C   0  0  0  0  0  0
  -19.4545   41.3440   -6.8201 C   0  0  0  0  0  0
  -20.7162   41.1211   -7.0560 C   0  0  0  0  0  0
  -19.2383   39.9782   -8.8643 C   0  0  0  0  0  0
  -18.6082   40.4766   -7.7352 C   0  0  0  0  0  0
  -20.2185   40.1154   -7.9257 C   0  0  0  0  0  0
  -19.2878   39.0007   -7.8942 C   0  0  0  0  0  0
  1  9  1  0  0  0
  1  6  1  0  0  0
  1 13  1  0  0  0
  2  3  2  0  0  0
  2  7  1  0  0  0
  3  5  1  0  0  0
  4  7  2  0  0  0
  4  8  1  0  0  0
  5  6  2  0  0  0
  5  8  1  0  0  0
  6  8  1  0  0  0
  7  8  1  0  0  0
  9 11  1  0  0  0
  9 12  1  0  0  0
 10 11  1  0  0  0
 10 12  1  0  0  0
 11 12  1  0  0  0
 13 17  1  0  0  0
 14 15  2  0  0  0
 14 17  1  0  0  0
 15 18  1  0  0  0
 16 17  2  0  0  0
 16 18  1  0  0  0
 16 19  1  0  0  0
 17 19  1  0  0  0
 18 19  2  0  0  0
M  END
> <s_m_entry_id>
97

> <s_m_entry_name>
NEW-hitrmd-var4_17_lig_gen_fit_add_gna.sdf.2

> <minimizedAffinity>
-8.44635

> <minimizedRMSD>
1.25874

> <CNNscore>
0.3489266336

> <CNNaffinity>
6.0210814476

> <CNN_VS>
2.1009156704

> <CNNaffinity_variance>
0.0919556767

> <s_m_Source_Path>
C:\Users\maila\Downloads\mgr\NEW_model_var4_hitrmd

> <s_m_Source_File>
wzakresie-NEW_model_var4_hitrmd.mae

> <i_m_Source_File_Index>
16

> <s_user_SMILES>
C1=C2C=CC(C123)=C3C(C4C(C45)C5)C[C]67=C8C6=C8C=C7

> <s_m_subgroup_title>
wzakresie-NEW_model_var4_hitrmd->NEW-hitrmd-var4_17_lig_gen_fit_add_gna

> <s_m_subgroupid>
wzakresie-NEW_model_var4_hitrmd->NEW-hitrmd-var4_17_lig_gen_fit_add_gna

> <b_m_subgroup_collapsed>
0

$$$$
C12=CC3C=C4[C]1(=[C]234)CC56C(C6)C5CC(=C7)C(C7=8)C8
                    3D
 Schrodinger Suite 2021-1.
 18 25  0  0  1  0            999 V2000
  -16.6976   39.8433   -9.0270 C   0  0  0  0  0  0
  -16.5485   39.0555  -10.3146 C   0  0  0  0  0  0
  -16.0237   40.4676  -10.2750 C   0  0  0  0  0  0
  -15.5304   40.8225   -8.8784 C   0  0  0  0  0  0
  -18.1485   40.3815   -8.8686 C   0  0  0  0  0  0
  -19.6311   42.1556   -5.6726 C   0  0  0  0  0  0
  -21.3759   40.7611   -6.6685 C   0  0  0  0  0  0
  -18.7561   40.2531   -7.4351 C   0  0  0  0  0  0
  -20.3476   40.0453   -7.6320 C   0  0  0  0  0  0
  -18.5047   41.6141   -6.6171 C   0  0  0  0  0  0
  -19.7577   41.1826   -7.1542 C   0  0  0  0  0  0
  -20.3426   40.8285   -5.8008 C   0  0  0  0  0  0
  -15.6104   42.3442   -8.6787 C   0  0  0  0  0  0
  -15.0654   45.7610   -9.9482 C   0  0  0  0  0  0
  -14.0758   44.8529   -9.6866 C   0  0  0  0  0  0
  -15.3027   44.4474   -9.9731 C   0  0  0  0  0  0
  -13.4035   43.7299   -9.4958 C   0  0  0  0  0  0
  -14.9486   43.0698   -9.8627 C   0  0  0  0  0  0
  1  2  1  0  0  0
  1  3  1  0  0  0
  1  5  1  0  0  0
  1  4  1  0  0  0
  2  3  1  0  0  0
  3  4  1  0  0  0
  4 13  1  0  0  0
  5  8  1  0  0  0
  6 10  2  0  0  0
  6 12  1  0  0  0
  7  9  2  0  0  0
  7 12  1  0  0  0
  8  9  1  0  0  0
  8 10  1  0  0  0
  8 11  2  0  0  0
  9 11  1  0  0  0
 10 11  1  0  0  0
 11 12  1  0  0  0
 13 18  1  0  0  0
 14 15  2  0  0  0
 14 16  1  0  0  0
 15 16  1  0  0  0
 15 17  1  0  0  0
 16 18  1  0  0  0
 17 18  2  0  0  0
M  END
> <s_m_entry_id>
98

> <s_m_entry_name>
NEW-hitrmd-var4_17_lig_gen_fit_add_gna.sdf.8

> <minimizedAffinity>
-8.03801

> <minimizedRMSD>
1.08314

> <CNNscore>
0.3908212781

> <CNNaffinity>
5.6581115723

> <CNN_VS>
2.2113103867

> <CNNaffinity_variance>
0.0745011196

> <s_m_Source_Path>
C:\Users\maila\Downloads\mgr\NEW_model_var4_hitrmd

> <s_m_Source_File>
wzakresie-NEW_model_var4_hitrmd.mae

> <i_m_Source_File_Index>
17

> <s_user_SMILES>
C12=CC3C=C4[C]1(=[C]234)CC56C(C6)C5CC(=C7)C(C7=8)C8

> <s_m_subgroup_title>
wzakresie-NEW_model_var4_hitrmd->NEW-hitrmd-var4_17_lig_gen_fit_add_gna

> <s_m_subgroupid>
wzakresie-NEW_model_var4_hitrmd->NEW-hitrmd-var4_17_lig_gen_fit_add_gna

> <b_m_subgroup_collapsed>
0

$$$$
C1C2=C([C]=123)C4=C3C4CC5C6C7C(C89)C67C59C18[C]23[C]=4(C1=2)C(C4)=C3
                    3D
 Schrodinger Suite 2021-1.
 22 34  0  0  1  0            999 V2000
  -19.7788   40.9918   -6.0793 C   0  0  0  0  0  0
  -18.4194   40.4468   -6.4206 C   0  0  0  0  0  0
  -15.9446   39.3424  -11.5400 C   0  0  0  0  0  0
  -16.9293   40.1852   -9.3464 C   0  0  0  0  0  0
  -21.0297   40.3680   -6.5883 C   0  0  0  0  0  0
  -15.3360   40.4794  -10.7386 C   0  0  0  0  0  0
  -17.0892   38.6775  -10.8337 C   0  0  0  0  0  0
  -18.0466   39.6322  -10.1981 C   0  0  0  0  0  0
  -20.1133   41.0415   -7.6021 C   0  0  0  0  0  0
  -18.6419   40.7246   -7.8676 C   0  0  0  0  0  0
  -18.2022   39.5298   -8.6865 C   0  0  0  0  0  0
  -19.7074   39.8569   -8.4773 C   0  0  0  0  0  0
  -15.9476   39.2632  -10.0239 C   0  0  0  0  0  0
  -16.3322   41.4304  -10.0338 C   0  0  0  0  0  0
  -15.5744   42.4219   -9.0970 C   0  0  0  0  0  0
  -15.3512   46.4800   -8.6892 C   0  0  0  0  0  0
  -15.5697   45.2672   -9.3145 C   0  0  0  0  0  0
  -14.6070   44.2846  -10.7095 C   0  0  0  0  0  0
  -14.2595   44.2836   -9.1387 C   0  0  0  0  0  0
  -15.9169   46.4272  -10.0922 C   0  0  0  0  0  0
  -15.5524   43.9368   -9.6187 C   0  0  0  0  0  0
  -14.7035   45.5582   -9.9320 C   0  0  0  0  0  0
  1  2  2  0  0  0
  1  5  1  0  0  0
  1  9  1  0  0  0
  2 10  1  0  0  0
  3  6  1  0  0  0
  3  7  1  0  0  0
  3 13  1  0  0  0
  4  8  1  0  0  0
  4 11  1  0  0  0
  4 13  1  0  0  0
  4 14  1  0  0  0
  5  9  2  0  0  0
  6 13  1  0  0  0
  6 14  1  0  0  0
  7  8  1  0  0  0
  7 13  1  0  0  0
  8 11  1  0  0  0
  9 10  1  0  0  0
  9 12  1  0  0  0
 10 11  1  0  0  0
 10 12  2  0  0  0
 11 12  1  0  0  0
 14 15  1  0  0  0
 15 21  1  0  0  0
 16 17  2  0  0  0
 16 20  1  0  0  0
 17 19  1  0  0  0
 17 20  1  0  0  0
 17 22  1  0  0  0
 18 19  2  0  0  0
 18 21  1  0  0  0
 18 22  1  0  0  0
 19 21  1  0  0  0
 20 22  2  0  0  0
M  END
> <s_m_entry_id>
99

> <s_m_entry_name>
NEW-hitrmd-var4_17_lig_gen_fit_add_gna.sdf.9

> <minimizedAffinity>
-9.04941

> <minimizedRMSD>
1.22206

> <CNNscore>
0.4060293436

> <CNNaffinity>
6.1674509048

> <CNN_VS>
2.5041661263

> <CNNaffinity_variance>
0.0246172212

> <s_m_Source_Path>
C:\Users\maila\Downloads\mgr\NEW_model_var4_hitrmd

> <s_m_Source_File>
wzakresie-NEW_model_var4_hitrmd.mae

> <i_m_Source_File_Index>
18

> <s_user_SMILES>
C1C2=C([C]=123)C4=C3C4CC5C6C7C(C89)C67C59C18[C]23[C]=4(C1=2)C(C4)=C3

> <s_m_subgroup_title>
wzakresie-NEW_model_var4_hitrmd->NEW-hitrmd-var4_17_lig_gen_fit_add_gna

> <s_m_subgroupid>
wzakresie-NEW_model_var4_hitrmd->NEW-hitrmd-var4_17_lig_gen_fit_add_gna

> <b_m_subgroup_collapsed>
0

$$$$
C1CC1C2C3C=2[C]3(=C45)[C]5(C6)=[C]67[C]8(=[C]479)[C]19=[C]23[C]18=C2C3
                    3D
 Schrodinger Suite 2021-1.
 18 29  0  0  1  0            999 V2000
  -19.3760   39.8604   -9.7911 C   0  0  0  0  0  0
  -19.4652   41.1460  -13.2472 C   0  0  0  0  0  0
  -19.2912   40.9652   -7.6527 C   0  0  0  0  0  0
  -19.9314   41.9726   -6.7053 C   0  0  0  0  0  0
  -18.7304   41.2308  -11.9818 C   0  0  0  0  0  0
  -17.8992   40.0151   -9.6813 C   0  0  0  0  0  0
  -18.8603   41.0504   -9.0920 C   0  0  0  0  0  0
  -18.7861   42.3888  -12.9141 C   0  0  0  0  0  0
  -20.6229   41.7370   -7.9813 C   0  0  0  0  0  0
  -17.9742   41.2041  -13.2149 C   0  0  0  0  0  0
  -20.2221   40.4416   -8.6535 C   0  0  0  0  0  0
  -17.9223   40.0724  -11.2909 C   0  0  0  0  0  0
  -21.4419   41.7394   -6.7157 C   0  0  0  0  0  0
  -19.4379   40.0691  -11.2623 C   0  0  0  0  0  0
  -16.9432   40.8655  -10.4583 C   0  0  0  0  0  0
  -17.3444   44.3946  -13.7436 C   0  0  0  0  0  0
  -18.8059   44.7572  -13.8321 C   0  0  0  0  0  0
  -18.3742   43.3152  -14.0761 C   0  0  0  0  0  0
  1  6  1  0  0  0
  1  7  2  0  0  0
  1 11  1  0  0  0
  1 14  1  0  0  0
  2  5  1  0  0  0
  2  8  2  0  0  0
  2 10  1  0  0  0
  3  4  2  0  0  0
  3  7  1  0  0  0
  3  9  1  0  0  0
  3 11  1  0  0  0
  4  9  1  0  0  0
  4 13  1  0  0  0
  5 10  1  0  0  0
  5 12  1  0  0  0
  5 14  2  0  0  0
  6  7  1  0  0  0
  6 12  2  0  0  0
  6 15  1  0  0  0
  7 11  1  0  0  0
  8 10  1  0  0  0
  8 18  1  0  0  0
  9 11  2  0  0  0
  9 13  1  0  0  0
 12 14  1  0  0  0
 12 15  1  0  0  0
 16 17  1  0  0  0
 16 18  1  0  0  0
 17 18  1  0  0  0
M  END
> <s_m_entry_id>
100

> <s_m_entry_name>
NEW-hitrmd-var4_19_lig_gen_fit_add_gna.sdf.4

> <minimizedAffinity>
-8.75595

> <minimizedRMSD>
0.40924

> <CNNscore>
0.6001362801

> <CNNaffinity>
5.831805706

> <CNN_VS>
3.4998781681

> <CNNaffinity_variance>
0.3710452914

> <s_m_Source_Path>
C:\Users\maila\Downloads\mgr\NEW_model_var4_hitrmd

> <s_m_Source_File>
wzakresie-NEW_model_var4_hitrmd.mae

> <i_m_Source_File_Index>
19

> <s_user_SMILES>
C1CC1C2C3C=2[C]3(=C45)[C]5(C6)=[C]67[C]8(=[C]479)[C]19=[C]23[C]18=C2C3

> <s_m_subgroup_title>
wzakresie-NEW_model_var4_hitrmd->NEW-hitrmd-var4_19_lig_gen_fit_add_gna

> <s_m_subgroupid>
wzakresie-NEW_model_var4_hitrmd->NEW-hitrmd-var4_19_lig_gen_fit_add_gna

> <b_m_subgroup_collapsed>
0

$$$$
C1=C2[C](=[C]123)(C3)C#CC4C5C4C56C(C6)C7C8C79[C]1(C289)=C2C1
                    3D
 Schrodinger Suite 2021-1.
 20 30  0  0  1  0            999 V2000
  -19.4487   40.1849  -10.4092 C   0  0  0  0  0  0
  -16.1482   41.6873  -11.5201 C   0  0  0  0  0  0
  -17.6164   41.2623  -11.8016 C   0  0  0  0  0  0
  -17.1747   42.7396  -11.6504 C   0  0  0  0  0  0
  -19.0124   41.4108  -11.1776 C   0  0  0  0  0  0
  -17.9902   40.4896  -10.5307 C   0  0  0  0  0  0
  -18.0830   46.9373  -11.9932 C   0  0  0  0  0  0
  -16.9437   45.9166  -11.6908 C   0  0  0  0  0  0
  -17.1604   43.4997  -12.9815 C   0  0  0  0  0  0
  -17.0249   45.0078  -12.8972 C   0  0  0  0  0  0
  -16.6387   47.3274  -12.1634 C   0  0  0  0  0  0
  -18.2827   45.4447  -12.0338 C   0  0  0  0  0  0
  -18.3556   44.4515  -13.1751 C   0  0  0  0  0  0
  -20.0634   40.5482   -9.1317 C   0  0  0  0  0  0
  -20.5395   40.9008   -8.0829 C   0  0  0  0  0  0
  -22.2829   42.0492   -5.7648 C   0  0  0  0  0  0
  -22.6105   41.6833   -7.1667 C   0  0  0  0  0  0
  -21.6406   42.6471   -6.8045 C   0  0  0  0  0  0
  -21.0814   41.3713   -6.7984 C   0  0  0  0  0  0
  -20.1889   42.5113   -6.4437 C   0  0  0  0  0  0
  1 14  1  0  0  0
  1  5  1  0  0  0
  1  6  1  0  0  0
  2  3  1  0  0  0
  2  4  1  0  0  0
  3  4  1  0  0  0
  3  5  1  0  0  0
  3  6  1  0  0  0
  4  9  1  0  0  0
  5  6  1  0  0  0
  7  8  2  0  0  0
  7 11  1  0  0  0
  7 12  1  0  0  0
  8 10  1  0  0  0
  8 11  1  0  0  0
  8 12  1  0  0  0
  9 10  1  0  0  0
  9 13  1  0  0  0
 10 12  1  0  0  0
 10 13  1  0  0  0
 12 13  1  0  0  0
 14 15  3  0  0  0
 15 19  1  0  0  0
 16 17  2  0  0  0
 16 18  1  0  0  0
 17 18  1  0  0  0
 17 19  1  0  0  0
 18 19  2  0  0  0
 18 20  1  0  0  0
 19 20  1  0  0  0
M  END
> <s_m_entry_id>
101

> <s_m_entry_name>
NEW-hitrmd-var4_27_lig_gen_fit_add_gna.sdf.3

> <minimizedAffinity>
-8.61827

> <minimizedRMSD>
0.85948

> <CNNscore>
0.5181767344

> <CNNaffinity>
5.7878289223

> <CNN_VS>
2.9991183281

> <CNNaffinity_variance>
0.1762072295

> <s_m_Source_Path>
C:\Users\maila\Downloads\mgr\NEW_model_var4_hitrmd

> <s_m_Source_File>
wzakresie-NEW_model_var4_hitrmd.mae

> <i_m_Source_File_Index>
20

> <s_user_SMILES>
C1=C2[C](=[C]123)(C3)C#CC4C5C4C56C(C6)C7C8C79[C]1(C289)=C2C1

> <s_m_subgroup_title>
wzakresie-NEW_model_var4_hitrmd->NEW-hitrmd-var4_27_lig_gen_fit_add_gna

> <s_m_subgroupid>
wzakresie-NEW_model_var4_hitrmd->NEW-hitrmd-var4_27_lig_gen_fit_add_gna

> <b_m_subgroup_collapsed>
0

$$$$
C1C2C1([C]=234)C4=C3CC56C7(C5C67)C8C9=[C]18[C]=2([C]1=39)C3C2
                    3D
 Schrodinger Suite 2021-1.
 18 29  0  0  1  0            999 V2000
  -19.6005   40.5497  -11.4947 C   0  0  0  0  0  0
  -18.2625   41.1530  -11.4072 C   0  0  0  0  0  0
  -18.9700   40.3017  -10.2157 C   0  0  0  0  0  0
  -18.2496   39.6915  -11.3415 C   0  0  0  0  0  0
  -18.0528   45.2155  -12.3265 C   0  0  0  0  0  0
  -16.8221   42.4099  -13.0326 C   0  0  0  0  0  0
  -17.2544   43.8612  -12.8550 C   0  0  0  0  0  0
  -18.5412   43.9250  -12.3072 C   0  0  0  0  0  0
  -17.5425   44.2116  -11.3407 C   0  0  0  0  0  0
  -17.9964   41.4728  -12.8880 C   0  0  0  0  0  0
  -18.2128   42.9059  -13.3942 C   0  0  0  0  0  0
  -18.5528   41.2850   -9.1070 C   0  0  0  0  0  0
  -19.8660   42.2453   -7.1093 C   0  0  0  0  0  0
  -22.2330   41.4497   -7.3350 C   0  0  0  0  0  0
  -20.8371   41.4788   -7.9397 C   0  0  0  0  0  0
  -21.1403   41.8217   -6.4313 C   0  0  0  0  0  0
  -19.3939   41.0035   -7.8611 C   0  0  0  0  0  0
  -22.3691   42.7010   -6.4681 C   0  0  0  0  0  0
  1  2  1  0  0  0
  1  3  1  0  0  0
  1  4  1  0  0  0
  2 10  1  0  0  0
  2  3  1  0  0  0
  2  4  1  0  0  0
  3 12  1  0  0  0
  3  4  1  0  0  0
  5  8  2  0  0  0
  5  9  1  0  0  0
  6  7  1  0  0  0
  6 10  1  0  0  0
  6 11  2  0  0  0
  7  8  1  0  0  0
  7  9  2  0  0  0
  7 11  1  0  0  0
  8  9  1  0  0  0
  8 11  1  0  0  0
 10 11  1  0  0  0
 12 17  1  0  0  0
 13 15  1  0  0  0
 13 16  1  0  0  0
 13 17  2  0  0  0
 14 15  2  0  0  0
 14 16  1  0  0  0
 14 18  1  0  0  0
 15 16  1  0  0  0
 15 17  1  0  0  0
 16 18  1  0  0  0
M  END
> <s_m_entry_id>
102

> <s_m_entry_name>
NEW-hitrmd-var4_27_lig_gen_fit_add_gna.sdf.6

> <minimizedAffinity>
-8.5745

> <minimizedRMSD>
0.30782

> <CNNscore>
0.4966048896

> <CNNaffinity>
5.7224092484

> <CNN_VS>
2.841776371

> <CNNaffinity_variance>
0.1882768273

> <s_m_Source_Path>
C:\Users\maila\Downloads\mgr\NEW_model_var4_hitrmd

> <s_m_Source_File>
wzakresie-NEW_model_var4_hitrmd.mae

> <i_m_Source_File_Index>
21

> <s_user_SMILES>
C1C2C1([C]=234)C4=C3CC56C7(C5C67)C8C9=[C]18[C]=2([C]1=39)C3C2

> <s_m_subgroup_title>
wzakresie-NEW_model_var4_hitrmd->NEW-hitrmd-var4_27_lig_gen_fit_add_gna

> <s_m_subgroupid>
wzakresie-NEW_model_var4_hitrmd->NEW-hitrmd-var4_27_lig_gen_fit_add_gna

> <b_m_subgroup_collapsed>
0

$$$$
CC1[C]2(C134)=[C]5(CC5)C2C4C36C7C6C8[C]1=9C(=C78)C1C9
                    3D
 Schrodinger Suite 2021-1.
 18 27  0  0  1  0            999 V2000
  -21.8430   41.3479   -6.7081 C   0  0  0  0  0  0
  -16.7284   43.9790  -11.4858 C   0  0  0  0  0  0
  -21.1067   41.7401   -7.8066 C   0  0  0  0  0  0
  -18.2849   40.8651   -8.3666 C   0  0  0  0  0  0
  -16.9030   42.1196   -9.6604 C   0  0  0  0  0  0
  -21.5750   42.7687   -6.9678 C   0  0  0  0  0  0
  -20.1775   41.9092   -6.7543 C   0  0  0  0  0  0
  -16.9564   42.4665  -11.8368 C   0  0  0  0  0  0
  -19.3080   40.6058   -9.4213 C   0  0  0  0  0  0
  -15.4415   44.7649  -11.8765 C   0  0  0  0  0  0
  -16.4478   44.5069  -12.9178 C   0  0  0  0  0  0
  -19.0172   41.5504  -12.9758 C   0  0  0  0  0  0
  -20.3786   40.4867   -8.3245 C   0  0  0  0  0  0
  -17.7197   41.5257  -10.8212 C   0  0  0  0  0  0
  -18.4213   41.8824   -9.5279 C   0  0  0  0  0  0
  -18.4560   42.3702  -11.8219 C   0  0  0  0  0  0
  -16.0965   42.8480  -10.7050 C   0  0  0  0  0  0
  -19.3659   40.6867   -7.3051 C   0  0  0  0  0  0
  1  3  2  0  0  0
  1  6  1  0  0  0
  2  8  2  0  0  0
  2 10  1  0  0  0
  2 11  1  0  0  0
  2 17  1  0  0  0
  3  6  1  0  0  0
  3  7  1  0  0  0
  3 13  1  0  0  0
  4  9  1  0  0  0
  4 15  1  0  0  0
  4 18  1  0  0  0
  5 14  1  0  0  0
  5 15  1  0  0  0
  5 17  1  0  0  0
  6  7  1  0  0  0
  7 18  2  0  0  0
  8 14  1  0  0  0
  8 16  1  0  0  0
  8 17  1  0  0  0
  9 13  1  0  0  0
  9 15  1  0  0  0
 10 11  1  0  0  0
 12 16  1  0  0  0
 13 18  1  0  0  0
 14 15  1  0  0  0
 14 16  1  0  0  0
M  END
> <s_m_entry_id>
103

> <s_m_entry_name>
NEW-hitrmd-var4_32_lig_gen_fit_add_gna.sdf.5

> <minimizedAffinity>
-9.20477

> <minimizedRMSD>
0.47069

> <CNNscore>
0.4577711821

> <CNNaffinity>
5.5464258194

> <CNN_VS>
2.5389938354

> <CNNaffinity_variance>
0.2930358946

> <s_m_Source_Path>
C:\Users\maila\Downloads\mgr\NEW_model_var4_hitrmd

> <s_m_Source_File>
wzakresie-NEW_model_var4_hitrmd.mae

> <i_m_Source_File_Index>
22

> <s_user_SMILES>
CC1[C]2(C134)=[C]5(CC5)C2C4C36C7C6C8[C]1=9C(=C78)C1C9

> <s_m_subgroup_title>
wzakresie-NEW_model_var4_hitrmd->NEW-hitrmd-var4_32_lig_gen_fit_add_gna

> <s_m_subgroupid>
wzakresie-NEW_model_var4_hitrmd->NEW-hitrmd-var4_32_lig_gen_fit_add_gna

> <b_m_subgroup_collapsed>
0

$$$$
C1C=[C]1([C]23=4)C3=C2C4C5C=C6[C]5(=[C]678)C79C8C9C1C(C12)C2
                    3D
 Schrodinger Suite 2021-1.
 19 29  0  0  1  0            999 V2000
  -19.8772   40.7904  -10.6644 C   0  0  0  0  0  0
  -17.4503   40.1884  -11.6528 C   0  0  0  0  0  0
  -18.7877   39.8292  -11.0691 C   0  0  0  0  0  0
  -17.7712   40.6152  -10.2046 C   0  0  0  0  0  0
  -18.9553   41.4709   -9.6974 C   0  0  0  0  0  0
  -16.9307   42.6770  -11.9185 C   0  0  0  0  0  0
  -16.7707   41.3911  -11.0918 C   0  0  0  0  0  0
  -17.3603   41.3845  -12.5505 C   0  0  0  0  0  0
  -19.1931   41.0848   -8.2036 C   0  0  0  0  0  0
  -20.4748   41.2284   -7.3870 C   0  0  0  0  0  0
  -22.6864   41.0955   -7.4747 C   0  0  0  0  0  0
  -21.6970   42.0747   -7.7229 C   0  0  0  0  0  0
  -20.6474   42.4582   -6.6490 C   0  0  0  0  0  0
  -19.2929   42.2301   -7.2202 C   0  0  0  0  0  0
  -22.8066   42.4058   -6.9188 C   0  0  0  0  0  0
  -18.0635   43.7119  -11.8754 C   0  0  0  0  0  0
  -16.7461   45.8480  -12.0893 C   0  0  0  0  0  0
  -17.5551   44.9627  -11.1687 C   0  0  0  0  0  0
  -17.8592   45.0015  -12.6648 C   0  0  0  0  0  0
  1  3  2  0  0  0
  1  5  1  0  0  0
  2  3  1  0  0  0
  2  4  2  0  0  0
  2  7  1  0  0  0
  2  8  1  0  0  0
  3  4  1  0  0  0
  4  5  1  0  0  0
  4  7  1  0  0  0
  5  9  1  0  0  0
  6 16  1  0  0  0
  6  7  1  0  0  0
  6  8  1  0  0  0
  7  8  1  0  0  0
  9 10  2  0  0  0
  9 14  1  0  0  0
 10 12  1  0  0  0
 10 13  1  0  0  0
 10 14  1  0  0  0
 11 12  2  0  0  0
 11 15  1  0  0  0
 12 13  1  0  0  0
 12 15  1  0  0  0
 13 14  2  0  0  0
 16 18  1  0  0  0
 16 19  1  0  0  0
 17 18  1  0  0  0
 17 19  1  0  0  0
 18 19  1  0  0  0
M  END
> <s_m_entry_id>
104

> <s_m_entry_name>
NEW-hitrmd-var4_35_lig_gen_fit_add_gna.sdf.4

> <minimizedAffinity>
-8.35552

> <minimizedRMSD>
0.77677

> <CNNscore>
0.4624662697

> <CNNaffinity>
5.9455771446

> <CNN_VS>
2.7496287823

> <CNNaffinity_variance>
0.0836752355

> <s_m_Source_Path>
C:\Users\maila\Downloads\mgr\NEW_model_var4_hitrmd

> <s_m_Source_File>
wzakresie-NEW_model_var4_hitrmd.mae

> <i_m_Source_File_Index>
23

> <s_user_SMILES>
C1C=[C]1([C]23=4)C3=C2C4C5C=C6[C]5(=[C]678)C79C8C9C1C(C12)C2

> <s_m_subgroup_title>
wzakresie-NEW_model_var4_hitrmd->NEW-hitrmd-var4_35_lig_gen_fit_add_gna

> <s_m_subgroupid>
wzakresie-NEW_model_var4_hitrmd->NEW-hitrmd-var4_35_lig_gen_fit_add_gna

> <b_m_subgroup_collapsed>
0

$$$$
C1CC1=C2C3(C245)C4(C5C)C3C6CC7=C6[C]78[C]=19[C]=2(C=89)C1C2
                    3D
 Schrodinger Suite 2021-1.
 20 30  0  0  1  0            999 V2000
   47.0292    6.7530   11.7527 C   0  0  0  0  0  0
   44.7925    5.5452   11.4830 C   0  0  0  0  0  0
   43.0133    5.1111   12.9149 C   0  0  0  0  0  0
   46.7040    6.9751   13.1484 C   0  0  0  0  0  0
   44.2531    4.2701   10.8024 C   0  0  0  0  0  0
   46.0368    5.6770   12.4581 C   0  0  0  0  0  0
   45.4037    6.7914   12.1280 C   0  0  0  0  0  0
   44.4356    5.7691   12.8215 C   0  0  0  0  0  0
   44.1123    4.3810   12.2791 C   0  0  0  0  0  0
   42.0030    5.8012   11.9731 C   0  0  0  0  0  0
   45.4082    2.2735    7.7234 C   0  0  0  0  0  0
   47.8494    2.0218    5.6518 C   0  0  0  0  0  0
   47.7992    1.7375    7.0026 C   0  0  0  0  0  0
   46.5824    1.2442    7.7768 C   0  0  0  0  0  0
   47.8034    3.1120    6.6650 C   0  0  0  0  0  0
   45.5131    3.6231    8.0303 C   0  0  0  0  0  0
   45.3251    2.7702    9.0266 C   0  0  0  0  0  0
   46.5331    2.1638    6.6363 C   0  0  0  0  0  0
   45.7132    4.8193    8.8042 C   0  0  0  0  0  0
   45.4698    3.7176   10.1360 C   0  0  0  0  0  0
  1  4  1  0  0  0
  1  7  1  0  0  0
  2  5  1  0  0  0
  2  6  1  0  0  0
  2  8  1  0  0  0
  2  9  1  0  0  0
  3  8  1  0  0  0
  3  9  1  0  0  0
  3 10  1  0  0  0
  4  7  1  0  0  0
  5 20  1  0  0  0
  5  9  1  0  0  0
  6  7  2  0  0  0
  6  8  1  0  0  0
  8  9  1  0  0  0
 11 14  2  0  0  0
 11 16  1  0  0  0
 11 17  1  0  0  0
 11 18  1  0  0  0
 12 13  2  0  0  0
 12 15  1  0  0  0
 13 14  1  0  0  0
 13 15  1  0  0  0
 13 18  1  0  0  0
 14 18  1  0  0  0
 15 18  2  0  0  0
 16 17  2  0  0  0
 16 19  1  0  0  0
 17 20  1  0  0  0
 19 20  1  0  0  0
M  END
> <s_m_entry_id>
105

> <s_m_entry_name>
NEW-hitrmd-var4_40_lig_gen_fit_add_gna.sdf.10

> <minimizedAffinity>
-9.48343

> <minimizedRMSD>
0.53199

> <CNNscore>
0.4352779984

> <CNNaffinity>
5.9940428734

> <CNN_VS>
2.6090750694

> <CNNaffinity_variance>
0.2222735435

> <s_m_Source_Path>
C:\Users\maila\Downloads\mgr\NEW_model_var4_hitrmd

> <s_m_Source_File>
wzakresie-NEW_model_var4_hitrmd.mae

> <i_m_Source_File_Index>
24

> <s_user_SMILES>
C1CC1=C2C3(C245)C4(C5C)C3C6CC7=C6[C]78[C]=19[C]=2(C=89)C1C2

> <s_m_subgroup_title>
wzakresie-NEW_model_var4_hitrmd->NEW-hitrmd-var4_40_lig_gen_fit_add_gna

> <s_m_subgroupid>
wzakresie-NEW_model_var4_hitrmd->NEW-hitrmd-var4_40_lig_gen_fit_add_gna

> <b_m_subgroup_collapsed>
0

$$$$
CCCCCC1C2C1C=3C24[C]5(=[C]67[C]345)C[C]78=C6C8
                    3D
 Schrodinger Suite 2021-1.
 17 24  0  0  1  0            999 V2000
  -33.3893   10.2035   -5.1178 C   0  0  0  0  0  0
  -33.9517   10.4750   -7.4780 C   0  0  0  0  0  0
  -34.8011   10.2477   -4.7648 C   0  0  0  0  0  0
  -34.1995    9.1807   -1.3634 C   0  0  0  0  0  0
  -35.2668    9.6697   -2.3397 C   0  0  0  0  0  0
  -34.5271    9.8753   -6.2188 C   0  0  0  0  0  0
  -33.5113    9.0554   -6.9310 C   0  0  0  0  0  0
  -33.1665    9.4891   -8.3218 C   0  0  0  0  0  0
  -33.8269    9.4364   -3.8940 C   0  0  0  0  0  0
  -35.2924    9.1851   -3.7858 C   0  0  0  0  0  0
  -32.4763    9.2597   -5.8940 C   0  0  0  0  0  0
  -33.7817   10.0564   -2.5248 C   0  0  0  0  0  0
  -33.7190    7.7176   -1.4360 C   0  0  0  0  0  0
  -34.8369    6.7392   -1.0638 C   0  0  0  0  0  0
  -34.4791    5.2826   -1.4035 C   0  0  0  0  0  0
  -32.8016    3.7195   -2.4623 C   0  0  0  0  0  0
  -33.0354    5.1180   -1.9035 C   0  0  0  0  0  0
  1  3  1  0  0  0
  1  6  2  0  0  0
  1  9  1  0  0  0
  1 11  1  0  0  0
  2  6  1  0  0  0
  2  7  2  0  0  0
  2  8  1  0  0  0
  3  6  1  0  0  0
  3  9  1  0  0  0
  3 10  2  0  0  0
  4  5  1  0  0  0
  4 13  1  0  0  0
  4 12  1  0  0  0
  5 10  1  0  0  0
  5 12  1  0  0  0
  6  7  1  0  0  0
  7  8  1  0  0  0
  7 11  1  0  0  0
  9 10  1  0  0  0
  9 12  1  0  0  0
 13 14  1  0  0  0
 14 15  1  0  0  0
 15 17  1  0  0  0
 16 17  1  0  0  0
M  END
> <s_m_entry_id>
106

> <s_m_entry_name>
NEW-hitrmd-var4_41_lig_gen_fit_add_gna.sdf.4

> <minimizedAffinity>
-8.46299

> <minimizedRMSD>
0.66957

> <CNNscore>
0.3892298639

> <CNNaffinity>
5.6717805862

> <CNN_VS>
2.2076263428

> <CNNaffinity_variance>
0.314935118

> <s_m_Source_Path>
C:\Users\maila\Downloads\mgr\NEW_model_var4_hitrmd

> <s_m_Source_File>
wzakresie-NEW_model_var4_hitrmd.mae

> <i_m_Source_File_Index>
25

> <s_user_SMILES>
CCCCCC1C2C1C=3C24[C]5(=[C]67[C]345)C[C]78=C6C8

> <s_m_subgroup_title>
wzakresie-NEW_model_var4_hitrmd->NEW-hitrmd-var4_41_lig_gen_fit_add_gna

> <s_m_subgroupid>
wzakresie-NEW_model_var4_hitrmd->NEW-hitrmd-var4_41_lig_gen_fit_add_gna

> <b_m_subgroup_collapsed>
0

$$$$
CCC1(C2)C23C(C)[C]4(=[C]56C134)[C]57=C8[C]19=[C]8(C67)C9=C1
                    3D
 Schrodinger Suite 2021-1.
 17 26  0  0  1  0            999 V2000
  -34.2652   10.2498   -4.3553 C   0  0  0  0  0  0
  -35.3362   10.6326   -5.6219 C   0  0  0  0  0  0
  -34.3247    9.5521   -5.7747 C   0  0  0  0  0  0
  -33.2571    9.4188   -3.5223 C   0  0  0  0  0  0
  -35.3597    9.5408   -4.8026 C   0  0  0  0  0  0
  -35.3367    9.9605   -3.3253 C   0  0  0  0  0  0
  -34.1646    6.5301   -0.8173 C   0  0  0  0  0  0
  -34.1937    9.5879   -2.3952 C   0  0  0  0  0  0
  -33.8948    8.1928   -2.8048 C   0  0  0  0  0  0
  -34.8658    8.2408    0.8648 C   0  0  0  0  0  0
  -33.9089    8.5481   -1.3446 C   0  0  0  0  0  0
  -33.1810    7.2941   -1.7832 C   0  0  0  0  0  0
  -33.8144    5.9511   -2.1838 C   0  0  0  0  0  0
  -34.9473    7.8274   -0.5985 C   0  0  0  0  0  0
  -35.1190    5.5808   -1.5084 C   0  0  0  0  0  0
  -32.7607    4.8201   -2.0646 C   0  0  0  0  0  0
  -33.2908    3.4429   -2.4842 C   0  0  0  0  0  0
  1  3  1  0  0  0
  1  4  1  0  0  0
  1  5  2  0  0  0
  1  6  1  0  0  0
  2  3  2  0  0  0
  2  5  1  0  0  0
  3  5  1  0  0  0
  4  8  1  0  0  0
  4  9  1  0  0  0
  5  6  1  0  0  0
  6  8  2  0  0  0
  7 12  1  0  0  0
  7 13  1  0  0  0
  7 14  1  0  0  0
  7 15  1  0  0  0
  8  9  1  0  0  0
  8 11  1  0  0  0
  9 11  2  0  0  0
  9 12  1  0  0  0
 10 14  1  0  0  0
 11 12  1  0  0  0
 11 14  1  0  0  0
 12 13  1  0  0  0
 13 16  1  0  0  0
 13 15  1  0  0  0
 16 17  1  0  0  0
M  END
> <s_m_entry_id>
107

> <s_m_entry_name>
NEW-hitrmd-var4_41_lig_gen_fit_add_gna.sdf.6

> <minimizedAffinity>
-8.29162

> <minimizedRMSD>
0.43714

> <CNNscore>
0.2214785069

> <CNNaffinity>
5.5326023102

> <CNN_VS>
1.2253525257

> <CNNaffinity_variance>
0.1793095171

> <s_m_Source_Path>
C:\Users\maila\Downloads\mgr\NEW_model_var4_hitrmd

> <s_m_Source_File>
wzakresie-NEW_model_var4_hitrmd.mae

> <i_m_Source_File_Index>
26

> <s_user_SMILES>
CCC1(C2)C23C(C)[C]4(=[C]56C134)[C]57=C8[C]19=[C]8(C67)C9=C1

> <s_m_subgroup_title>
wzakresie-NEW_model_var4_hitrmd->NEW-hitrmd-var4_41_lig_gen_fit_add_gna

> <s_m_subgroupid>
wzakresie-NEW_model_var4_hitrmd->NEW-hitrmd-var4_41_lig_gen_fit_add_gna

> <b_m_subgroup_collapsed>
0

$$$$
C1C2C([C]=123)=C3CC4C5C46C5(C78)[C]68=C9[C]7([C]1=29)=C1C2
                    3D
 Schrodinger Suite 2021-1.
 17 27  0  0  1  0            999 V2000
  -21.8487   42.8928   -6.2888 C   0  0  0  0  0  0
  -20.8553   41.9481   -6.1823 C   0  0  0  0  0  0
  -20.8913   40.5692   -8.2517 C   0  0  0  0  0  0
  -22.1802   41.4386   -6.2393 C   0  0  0  0  0  0
  -19.2635   39.9685  -10.2657 C   0  0  0  0  0  0
  -19.8552   42.1481   -7.3013 C   0  0  0  0  0  0
  -17.8199   40.0162   -9.8481 C   0  0  0  0  0  0
  -20.1258   40.9387   -9.4966 C   0  0  0  0  0  0
  -19.4595   40.9031   -8.0696 C   0  0  0  0  0  0
  -18.6922   41.1368   -9.3594 C   0  0  0  0  0  0
  -21.3050   41.8392   -7.4943 C   0  0  0  0  0  0
  -16.8251   40.3618  -10.9705 C   0  0  0  0  0  0
  -16.6917   43.6860  -12.1354 C   0  0  0  0  0  0
  -16.9846   42.3916  -12.8396 C   0  0  0  0  0  0
  -17.9761   42.9624  -12.0235 C   0  0  0  0  0  0
  -18.2385   41.7774  -13.0572 C   0  0  0  0  0  0
  -17.3129   41.4042  -11.9451 C   0  0  0  0  0  0
  1  2  2  0  0  0
  1  4  1  0  0  0
  2  4  1  0  0  0
  2  6  1  0  0  0
  2 11  1  0  0  0
  3  8  1  0  0  0
  3  9  1  0  0  0
  3 11  1  0  0  0
  4 11  2  0  0  0
  5  7  1  0  0  0
  5  8  1  0  0  0
  5 10  1  0  0  0
  6  9  2  0  0  0
  6 11  1  0  0  0
  7 12  1  0  0  0
  7 10  1  0  0  0
  8  9  1  0  0  0
  8 10  1  0  0  0
  9 10  1  0  0  0
 12 17  1  0  0  0
 13 14  2  0  0  0
 13 15  1  0  0  0
 14 15  1  0  0  0
 14 16  1  0  0  0
 14 17  1  0  0  0
 15 16  1  0  0  0
 16 17  2  0  0  0
M  END
> <s_m_entry_id>
108

> <s_m_entry_name>
NEW-hitrmd-var4_42_lig_gen_fit_add_gna.sdf.1

> <minimizedAffinity>
-8.33448

> <minimizedRMSD>
0.68154

> <CNNscore>
0.6527149081

> <CNNaffinity>
5.6593294144

> <CNN_VS>
3.6939287186

> <CNNaffinity_variance>
0.3444255888

> <s_m_Source_Path>
C:\Users\maila\Downloads\mgr\NEW_model_var4_hitrmd

> <s_m_Source_File>
wzakresie-NEW_model_var4_hitrmd.mae

> <i_m_Source_File_Index>
27

> <s_user_SMILES>
C1C2C([C]=123)=C3CC4C5C46C5(C78)[C]68=C9[C]7([C]1=29)=C1C2

> <s_m_subgroup_title>
wzakresie-NEW_model_var4_hitrmd->NEW-hitrmd-var4_42_lig_gen_fit_add_gna

> <s_m_subgroupid>
wzakresie-NEW_model_var4_hitrmd->NEW-hitrmd-var4_42_lig_gen_fit_add_gna

> <b_m_subgroup_collapsed>
0

$$$$
[C@H]12[C@@H](C2)[C@H]1CC[C@H]3[C@@H]4[C@@H]5C6(C345)[C@@H]7C8=C7C=CC=9C(=C68)C9
                    3D
 Schrodinger Suite 2021-1.
 20 28  0  0  1  0            999 V2000
  -23.3841   67.7334 -126.3150 C   0  0  0  0  0  0
  -26.1370   70.5762 -126.6018 C   0  0  0  0  0  0
  -23.5567   71.3418 -129.5275 C   0  0  2  0  0  0
  -25.4845   71.4395 -131.0586 C   0  0  1  0  0  0
  -26.0713   68.2978 -125.6685 C   0  0  0  0  0  0
  -23.7608   68.9692 -126.9144 C   0  0  0  0  0  0
  -23.8247   70.1482 -127.5156 C   0  0  0  0  0  0
  -24.6685   68.2014 -126.1357 C   0  0  0  0  0  0
  -26.7870   69.4256 -125.9428 C   0  0  0  0  0  0
  -24.8362   70.8908 -127.0221 C   0  0  0  0  0  0
  -25.8658   71.3021 -127.7492 C   0  0  1  0  0  0
  -23.9983   71.7418 -130.9410 C   0  0  1  0  0  0
  -24.7646   70.6368 -128.7390 C   0  0  3  0  0  0
  -24.9026   71.8165 -129.7345 C   0  0  3  0  0  0
  -26.3737   72.5725 -131.5719 C   0  0  0  0  0  0
  -27.8456   72.2152 -131.4282 C   0  0  0  0  0  0
  -29.6438   69.8042 -132.7114 C   0  0  0  0  0  0
  -29.4862   70.3437 -131.3203 C   0  0  2  0  0  0
  -28.0814   70.7635 -130.9790 C   0  0  1  0  0  0
  -28.2797   69.7030 -132.0574 C   0  0  2  0  0  0
  1  6  1  0  0  0
  1  8  2  0  0  0
  2  9  1  0  0  0
  2 10  2  0  0  0
  2 11  1  0  0  0
  3 12  1  0  0  0
  3 13  1  0  0  0
  3 14  1  0  0  0
  4 12  1  0  0  0
  4 15  1  0  0  0
  4 14  1  0  0  0
  5  8  1  0  0  0
  5  9  2  0  0  0
  6  7  2  0  0  0
  6  8  1  0  0  0
  7 10  1  0  0  0
  7 13  1  0  0  0
 10 11  1  0  0  0
 11 13  1  0  0  0
 12 14  1  0  0  0
 13 14  1  0  0  0
 15 16  1  0  0  0
 16 19  1  0  0  0
 17 18  1  0  0  0
 17 20  1  0  0  0
 18 19  1  0  0  0
 18 20  1  0  0  0
 19 20  1  0  0  0
M  END
> <s_m_entry_id>
109

> <s_m_entry_name>
NEW-hitrmd-var4_43_lig_gen_fit_add_gna.sdf.4

> <minimizedAffinity>
-9.79494

> <minimizedRMSD>
0.44804

> <CNNscore>
0.4191598296

> <CNNaffinity>
6.3935728073

> <CNN_VS>
2.6799287796

> <CNNaffinity_variance>
0.0860168487

> <s_m_Source_Path>
C:\Users\maila\Downloads\mgr\NEW_model_var4_hitrmd

> <s_m_Source_File>
wzakresie-NEW_model_var4_hitrmd.mae

> <i_m_Source_File_Index>
28

> <s_user_SMILES>
[C@H]12[C@@H](C2)[C@H]1CC[C@H]3[C@@H]4[C@@H]5C6(C345)[C@@H]7C8=C7C=CC=9C(=C68)C9

> <s_m_subgroup_title>
wzakresie-NEW_model_var4_hitrmd->NEW-hitrmd-var4_43_lig_gen_fit_add_gna

> <s_m_subgroupid>
wzakresie-NEW_model_var4_hitrmd->NEW-hitrmd-var4_43_lig_gen_fit_add_gna

> <b_m_subgroup_collapsed>
0

$$$$
C123C4=C2C=C3C(=C14)[C@@H](C5)CC[C@H]6[C@@H]5C67[C@@H]8[C@H]7C8
                    3D
 Schrodinger Suite 2021-1.
 17 24  0  0  1  0            999 V2000
  -28.0412   69.9886 -132.2551 C   0  0  0  0  0  0
  -24.2718   70.4662 -129.1476 C   0  0  0  0  0  0
  -25.7559   72.2492 -130.3428 C   0  0  2  0  0  0
  -26.6118   69.9654 -131.7592 C   0  0  2  0  0  0
  -26.4485   70.8680 -130.5123 C   0  0  3  0  0  0
  -24.8941   71.0543 -130.4311 C   0  0  2  0  0  0
  -26.0109   72.8612 -128.9754 C   0  0  0  0  0  0
  -24.6340   71.1198 -127.7904 C   0  0  1  0  0  0
  -27.4039   71.2245 -131.6763 C   0  0  2  0  0  0
  -25.9846   71.8481 -127.8285 C   0  0  0  0  0  0
  -23.9784   68.0582 -125.7030 C   0  0  0  0  0  0
  -26.2414   69.0819 -124.3987 C   0  0  0  0  0  0
  -24.7648   68.6320 -126.7685 C   0  0  0  0  0  0
  -25.0666   68.4732 -124.9749 C   0  0  0  0  0  0
  -24.3823   70.1323 -126.5914 C   0  0  0  0  0  0
  -25.4147   70.2021 -125.3551 C   0  0  0  0  0  0
  -25.9850   69.0157 -125.7509 C   0  0  3  0  0  0
  1  4  1  0  0  0
  1  9  1  0  0  0
  2  6  1  0  0  0
  2  8  1  0  0  0
  3  5  1  0  0  0
  3  6  1  0  0  0
  3  7  1  0  0  0
  4  5  1  0  0  0
  4  9  1  0  0  0
  5  6  1  0  0  0
  5  9  1  0  0  0
  7 10  1  0  0  0
  8 15  1  0  0  0
  8 10  1  0  0  0
 11 13  2  0  0  0
 11 14  1  0  0  0
 12 14  2  0  0  0
 12 16  1  0  0  0
 12 17  1  0  0  0
 13 15  1  0  0  0
 13 17  1  0  0  0
 14 17  1  0  0  0
 15 16  2  0  0  0
 16 17  1  0  0  0
M  END
> <s_m_entry_id>
110

> <s_m_entry_name>
NEW-hitrmd-var4_44_lig_gen_fit_add_gna.sdf.10

> <minimizedAffinity>
-8.18786

> <minimizedRMSD>
0.62486

> <CNNscore>
0.4377517998

> <CNNaffinity>
5.8616118431

> <CNN_VS>
2.5659310818

> <CNNaffinity_variance>
0.1249267682

> <s_m_Source_Path>
C:\Users\maila\Downloads\mgr\NEW_model_var4_hitrmd

> <s_m_Source_File>
wzakresie-NEW_model_var4_hitrmd.mae

> <i_m_Source_File_Index>
29

> <s_user_SMILES>
C123C4=C2C=C3C(=C14)[C@@H](C5)CC[C@H]6[C@@H]5C67[C@@H]8[C@H]7C8

> <s_m_subgroup_title>
wzakresie-NEW_model_var4_hitrmd->NEW-hitrmd-var4_44_lig_gen_fit_add_gna

> <s_m_subgroupid>
wzakresie-NEW_model_var4_hitrmd->NEW-hitrmd-var4_44_lig_gen_fit_add_gna

> <b_m_subgroup_collapsed>
0

$$$$
[C]1=23[C]45=C1C=C4C5C2C3C6(C7(C68)CC7)C89C1C2(C19)CC2
                    3D
 Schrodinger Suite 2021-1.
 19 29  0  0  1  0            999 V2000
   28.8538   17.8752   16.9239 C   0  0  0  0  0  0
   29.6378   15.0496   19.2308 C   0  0  0  0  0  0
   27.9977   11.8396   18.0824 C   0  0  0  0  0  0
   30.1110   15.6422   17.8902 C   0  0  0  0  0  0
   29.9309   17.1647   17.7875 C   0  0  0  0  0  0
   28.9606   16.2635   18.5642 C   0  0  0  0  0  0
   28.0013   13.3652   18.2383 C   0  0  0  0  0  0
   26.8428   12.4725   18.7474 C   0  0  0  0  0  0
   28.3211   14.2859   19.4482 C   0  0  0  0  0  0
   29.4223   13.5736   18.8317 C   0  0  0  0  0  0
   30.0836   17.4185   16.2619 C   0  0  0  0  0  0
   24.3412   14.6376   22.5963 C   0  0  0  0  0  0
   25.4523   14.5912   23.1923 C   0  0  0  0  0  0
   25.2110   13.6220   21.7405 C   0  0  0  0  0  0
   27.5442   15.0693   21.7688 C   0  0  0  0  0  0
   26.9461   14.8214   23.1173 C   0  0  0  0  0  0
   26.4088   13.6225   22.6660 C   0  0  0  0  0  0
   26.6091   14.0396   21.1903 C   0  0  0  0  0  0
   28.0663   13.8749   20.9257 C   0  0  0  0  0  0
  1  5  1  0  0  0
  1 11  1  0  0  0
  2  4  1  0  0  0
  2  6  1  0  0  0
  2  9  1  0  0  0
  2 10  1  0  0  0
  3  7  1  0  0  0
  3  8  1  0  0  0
  4  5  1  0  0  0
  4  6  1  0  0  0
  5  6  1  0  0  0
  5 11  1  0  0  0
  7  8  1  0  0  0
  7  9  1  0  0  0
  7 10  1  0  0  0
  9 10  1  0  0  0
  9 19  1  0  0  0
 12 13  2  0  0  0
 12 14  1  0  0  0
 13 16  1  0  0  0
 13 17  1  0  0  0
 14 17  2  0  0  0
 14 18  1  0  0  0
 15 16  1  0  0  0
 15 18  2  0  0  0
 15 19  1  0  0  0
 16 17  1  0  0  0
 17 18  1  0  0  0
 18 19  1  0  0  0
M  END
> <s_m_entry_id>
111

> <s_m_entry_name>
NEW-hitrmd-var4_45_lig_gen_fit_add_gna.sdf.1

> <minimizedAffinity>
-9.0676

> <minimizedRMSD>
1.46603

> <CNNscore>
0.2847247124

> <CNNaffinity>
6.1196947098

> <CNN_VS>
1.7424283028

> <CNNaffinity_variance>
0.0627677888

> <s_m_Source_Path>
C:\Users\maila\Downloads\mgr\NEW_model_var4_hitrmd

> <s_m_Source_File>
wzakresie-NEW_model_var4_hitrmd.mae

> <i_m_Source_File_Index>
30

> <s_user_SMILES>
[C]1=23[C]45=C1C=C4C5C2C3C6(C7(C68)CC7)C89C1C2(C19)CC2

> <s_m_subgroup_title>
wzakresie-NEW_model_var4_hitrmd->NEW-hitrmd-var4_45_lig_gen_fit_add_gna

> <s_m_subgroupid>
wzakresie-NEW_model_var4_hitrmd->NEW-hitrmd-var4_45_lig_gen_fit_add_gna

> <b_m_subgroup_collapsed>
0

$$$$
CCCC(C1)C2C3C12C34[C]5=6[C]7(=C45)C(C6)=CC7
                    3D
 Schrodinger Suite 2021-1.
 16 22  0  0  1  0            999 V2000
   26.3985   14.9168   23.1005 C   0  0  0  0  0  0
   25.1045   15.5418   22.8564 C   0  0  0  0  0  0
   25.9056   13.5987   22.7135 C   0  0  0  0  0  0
   27.6409   13.8889   18.2719 C   0  0  0  0  0  0
   24.5702   14.2919   22.5891 C   0  0  0  0  0  0
   29.2671   12.7122   19.0456 C   0  0  0  0  0  0
   26.7645   13.0307   19.1463 C   0  0  0  0  0  0
   27.2016   13.4782   21.8721 C   0  0  0  0  0  0
   25.9320   13.1531   21.2297 C   0  0  0  0  0  0
   27.4524   14.9411   22.0393 C   0  0  0  0  0  0
   27.2288   12.6856   20.5584 C   0  0  0  0  0  0
   28.1281   13.5226   19.6515 C   0  0  0  0  0  0
   28.8225   13.1382   17.6554 C   0  0  0  0  0  0
   29.8691   13.9668   16.8854 C   0  0  0  0  0  0
   30.8502   16.2821   17.0958 C   0  0  0  0  0  0
   29.5934   15.4749   16.7793 C   0  0  0  0  0  0
  1  2  2  0  0  0
  1  3  1  0  0  0
  1 10  1  0  0  0
  2  5  1  0  0  0
  3  5  1  0  0  0
  3  8  1  0  0  0
  3  9  2  0  0  0
  4  7  1  0  0  0
  4 12  1  0  0  0
  4 13  1  0  0  0
  6 12  1  0  0  0
  6 13  1  0  0  0
  7 11  1  0  0  0
  7 12  1  0  0  0
  8  9  1  0  0  0
  8 10  2  0  0  0
  8 11  1  0  0  0
  9 11  1  0  0  0
 11 12  1  0  0  0
 13 14  1  0  0  0
 14 16  1  0  0  0
 15 16  1  0  0  0
M  END
> <s_m_entry_id>
112

> <s_m_entry_name>
NEW-hitrmd-var4_45_lig_gen_fit_add_gna.sdf.7

> <minimizedAffinity>
-8.10504

> <minimizedRMSD>
0.94151

> <CNNscore>
0.5069167018

> <CNNaffinity>
5.5437836647

> <CNN_VS>
2.810236454

> <CNNaffinity_variance>
0.383907795

> <s_m_Source_Path>
C:\Users\maila\Downloads\mgr\NEW_model_var4_hitrmd

> <s_m_Source_File>
wzakresie-NEW_model_var4_hitrmd.mae

> <i_m_Source_File_Index>
31

> <s_user_SMILES>
CCCC(C1)C2C3C12C34[C]5=6[C]7(=C45)C(C6)=CC7

> <s_m_subgroup_title>
wzakresie-NEW_model_var4_hitrmd->NEW-hitrmd-var4_45_lig_gen_fit_add_gna

> <s_m_subgroupid>
wzakresie-NEW_model_var4_hitrmd->NEW-hitrmd-var4_45_lig_gen_fit_add_gna

> <b_m_subgroup_collapsed>
0

$$$$
C1C=C2C3C4=[C]5([C]=12[C]=345)C(C6C7C689)CC9C8C7C1CC1
                    3D
 Schrodinger Suite 2021-1.
 19 28  0  0  1  0            999 V2000
   29.5068   13.9711   18.4906 C   0  0  0  0  0  0
   26.7599   12.5895   18.1212 C   0  0  0  0  0  0
   29.2020   12.8499   17.4457 C   0  0  0  0  0  0
   29.0394   12.6113   18.9364 C   0  0  0  0  0  0
   27.5756   12.4090   19.3696 C   0  0  0  0  0  0
   28.6043   14.9314   17.7427 C   0  0  0  0  0  0
   27.7655   12.5913   16.9947 C   0  0  0  0  0  0
   28.3684   13.9060   16.6614 C   0  0  0  0  0  0
   25.9175   14.6916   21.9491 C   0  0  0  0  0  0
   24.5331   13.1458   21.6961 C   0  0  0  0  0  0
   25.8017   13.5782   21.0108 C   0  0  0  0  0  0
   27.2390   13.3895   20.5223 C   0  0  0  0  0  0
   24.6422   14.2170   22.5967 C   0  0  0  0  0  0
   27.0799   13.9127   22.1595 C   0  0  0  0  0  0
   28.2864   13.1765   21.6929 C   0  0  0  0  0  0
   26.9846   12.6984   21.6364 C   0  0  0  0  0  0
   29.3507   17.3944   18.0802 C   0  0  0  0  0  0
   29.3468   16.1602   17.1916 C   0  0  0  0  0  0
   28.4252   17.3363   16.8833 C   0  0  0  0  0  0
  1  3  1  0  0  0
  1  4  1  0  0  0
  1  6  1  0  0  0
  2  5  1  0  0  0
  2  7  1  0  0  0
  3  4  1  0  0  0
  3  7  1  0  0  0
  3  8  1  0  0  0
  4  5  1  0  0  0
  5 12  1  0  0  0
  6 18  1  0  0  0
  6  8  1  0  0  0
  7  8  1  0  0  0
  9 11  1  0  0  0
  9 13  2  0  0  0
  9 14  1  0  0  0
 10 11  2  0  0  0
 10 13  1  0  0  0
 11 12  1  0  0  0
 11 16  1  0  0  0
 12 15  2  0  0  0
 12 16  1  0  0  0
 14 15  1  0  0  0
 14 16  2  0  0  0
 15 16  1  0  0  0
 17 18  1  0  0  0
 17 19  1  0  0  0
 18 19  1  0  0  0
M  END
> <s_m_entry_id>
113

> <s_m_entry_name>
NEW-hitrmd-var4_45_lig_gen_fit_add_gna.sdf.9

> <minimizedAffinity>
-8.20935

> <minimizedRMSD>
0.72498

> <CNNscore>
0.3738957345

> <CNNaffinity>
5.9644546509

> <CNN_VS>
2.2300841808

> <CNNaffinity_variance>
0.2531255782

> <s_m_Source_Path>
C:\Users\maila\Downloads\mgr\NEW_model_var4_hitrmd

> <s_m_Source_File>
wzakresie-NEW_model_var4_hitrmd.mae

> <i_m_Source_File_Index>
32

> <s_user_SMILES>
C1C=C2C3C4=[C]5([C]=12[C]=345)C(C6C7C689)CC9C8C7C1CC1

> <s_m_subgroup_title>
wzakresie-NEW_model_var4_hitrmd->NEW-hitrmd-var4_45_lig_gen_fit_add_gna

> <s_m_subgroupid>
wzakresie-NEW_model_var4_hitrmd->NEW-hitrmd-var4_45_lig_gen_fit_add_gna

> <b_m_subgroup_collapsed>
0

$$$$
C1CC1CC2C3C24C35[C]4(=[C]567)C6=C8[C]7=9C8=CC9
                    3D
 Schrodinger Suite 2021-1.
 16 24  0  0  1  0            999 V2000
  -34.0015   10.4040   -7.2634 C   0  0  0  0  0  0
  -33.2683    9.6842   -3.5934 C   0  0  0  0  0  0
  -33.0918    9.3494   -5.0853 C   0  0  0  0  0  0
  -33.2499   10.5403   -5.9783 C   0  0  0  0  0  0
  -34.4138   10.0016   -5.3092 C   0  0  0  0  0  0
  -34.5106    9.0841   -3.0154 C   0  0  0  0  0  0
  -35.8799    8.9945   -0.7620 C   0  0  0  0  0  0
  -34.5663   10.4052   -3.8707 C   0  0  0  0  0  0
  -34.9486    9.6931   -1.7231 C   0  0  0  0  0  0
  -36.3634   10.0916   -1.7263 C   0  0  0  0  0  0
  -35.7359    9.8492   -3.0945 C   0  0  0  0  0  0
  -35.1712   10.0899   -6.5836 C   0  0  0  0  0  0
  -36.2017    7.5299   -1.0946 C   0  0  0  0  0  0
  -35.3766    5.1263   -0.7088 C   0  0  0  0  0  0
  -34.2051    5.8944   -1.2948 C   0  0  0  0  0  0
  -35.1995    6.6046   -0.3924 C   0  0  0  0  0  0
  1  4  2  0  0  0
  1 12  1  0  0  0
  2  3  2  0  0  0
  2  6  1  0  0  0
  2  8  1  0  0  0
  3  4  1  0  0  0
  3  5  1  0  0  0
  4  5  1  0  0  0
  5  8  1  0  0  0
  5 12  2  0  0  0
  6  8  2  0  0  0
  6  9  1  0  0  0
  6 11  1  0  0  0
  7  9  1  0  0  0
  7 10  1  0  0  0
  7 13  1  0  0  0
  8 11  1  0  0  0
  9 10  1  0  0  0
  9 11  1  0  0  0
 10 11  1  0  0  0
 13 16  1  0  0  0
 14 15  1  0  0  0
 14 16  1  0  0  0
 15 16  1  0  0  0
M  END
> <s_m_entry_id>
114

> <s_m_entry_name>
NEW-hitrmd-var4_46_lig_gen_fit_add_gna.sdf.4

> <minimizedAffinity>
-8.70664

> <minimizedRMSD>
0.47698

> <CNNscore>
0.3602212965

> <CNNaffinity>
5.5436468124

> <CNN_VS>
1.9969396591

> <CNNaffinity_variance>
0.3591332436

> <s_m_Source_Path>
C:\Users\maila\Downloads\mgr\NEW_model_var4_hitrmd

> <s_m_Source_File>
wzakresie-NEW_model_var4_hitrmd.mae

> <i_m_Source_File_Index>
33

> <s_user_SMILES>
C1CC1CC2C3C24C35[C]4(=[C]567)C6=C8[C]7=9C8=CC9

> <s_m_subgroup_title>
wzakresie-NEW_model_var4_hitrmd->NEW-hitrmd-var4_46_lig_gen_fit_add_gna

> <s_m_subgroupid>
wzakresie-NEW_model_var4_hitrmd->NEW-hitrmd-var4_46_lig_gen_fit_add_gna

> <b_m_subgroup_collapsed>
0

$$$$
CC1C(C12)C2CCCC3C4C5=[C]34[C]=6(C578)[C]7(=C8)C6
                    3D
 Schrodinger Suite 2021-1.
 17 24  0  0  1  0            999 V2000
  -32.5016   10.1894   -7.7615 C   0  0  0  0  0  0
  -33.6629   10.7551   -7.0087 C   0  0  0  0  0  0
  -34.5642    9.6029   -6.5030 C   0  0  0  0  0  0
  -33.1118    9.3991   -6.6070 C   0  0  0  0  0  0
  -34.4435    9.5908   -4.9558 C   0  0  0  0  0  0
  -32.9263    9.5780   -5.0852 C   0  0  0  0  0  0
  -33.6024   10.7347   -4.3299 C   0  0  0  0  0  0
  -35.1193   10.6541   -4.1697 C   0  0  0  0  0  0
  -35.0781   10.6475   -7.4743 C   0  0  0  0  0  0
  -35.7185   10.1562   -2.8186 C   0  0  0  0  0  0
  -34.9678    9.0482   -2.0289 C   0  0  0  0  0  0
  -35.8569    7.8459   -1.6807 C   0  0  0  0  0  0
  -35.9841    4.5053   -1.2876 C   0  0  0  0  0  0
  -37.1325    4.6283   -2.2838 C   0  0  0  0  0  0
  -35.0694    6.8354   -0.8271 C   0  0  0  0  0  0
  -35.8618    5.6523   -0.3103 C   0  0  0  0  0  0
  -34.8413    5.4804   -1.4666 C   0  0  0  0  0  0
  1  2  2  0  0  0
  1  4  1  0  0  0
  2  3  1  0  0  0
  2  4  1  0  0  0
  2  9  1  0  0  0
  3  4  1  0  0  0
  3  5  1  0  0  0
  3  9  2  0  0  0
  4  6  1  0  0  0
  5  6  2  0  0  0
  5  7  1  0  0  0
  5  8  1  0  0  0
  6  7  1  0  0  0
  7  8  1  0  0  0
  8 10  1  0  0  0
 10 11  1  0  0  0
 11 12  1  0  0  0
 12 15  1  0  0  0
 13 14  1  0  0  0
 13 16  1  0  0  0
 13 17  1  0  0  0
 15 16  1  0  0  0
 15 17  1  0  0  0
 16 17  1  0  0  0
M  END
> <s_m_entry_id>
115

> <s_m_entry_name>
NEW-hitrmd-var4_46_lig_gen_fit_add_gna.sdf.5

> <minimizedAffinity>
-8.12869

> <minimizedRMSD>
0.81901

> <CNNscore>
0.3768103421

> <CNNaffinity>
5.7103161812

> <CNN_VS>
2.1517062187

> <CNNaffinity_variance>
0.3572336137

> <s_m_Source_Path>
C:\Users\maila\Downloads\mgr\NEW_model_var4_hitrmd

> <s_m_Source_File>
wzakresie-NEW_model_var4_hitrmd.mae

> <i_m_Source_File_Index>
34

> <s_user_SMILES>
CC1C(C12)C2CCCC3C4C5=[C]34[C]=6(C578)[C]7(=C8)C6

> <s_m_subgroup_title>
wzakresie-NEW_model_var4_hitrmd->NEW-hitrmd-var4_46_lig_gen_fit_add_gna

> <s_m_subgroupid>
wzakresie-NEW_model_var4_hitrmd->NEW-hitrmd-var4_46_lig_gen_fit_add_gna

> <b_m_subgroup_collapsed>
0

$$$$
[C]123=[C]45[C]26=C(C1=C3)C6CC47C89C12C8C1C1(C2C9C57)C23C1C2C3
                    3D
 Schrodinger Suite 2021-1.
 21 34  0  0  1  0            999 V2000
  -34.0463   11.0758   -7.1625 C   0  0  0  0  0  0
  -35.7026    5.4734   -0.0518 C   0  0  0  0  0  0
  -35.9825    9.9945   -2.4719 C   0  0  0  0  0  0
  -34.8679   10.4287   -4.6452 C   0  0  0  0  0  0
  -35.7417    5.3082   -1.5640 C   0  0  0  0  0  0
  -35.5576    9.3994   -3.7673 C   0  0  0  0  0  0
  -33.5871    9.5729   -6.9223 C   0  0  0  0  0  0
  -34.4078    8.2502   -0.5176 C   0  0  0  0  0  0
  -33.7122    9.3374   -1.3054 C   0  0  0  0  0  0
  -33.2661   10.5765   -5.9765 C   0  0  0  0  0  0
  -34.1392    9.8864   -3.4640 C   0  0  0  0  0  0
  -34.5690   10.3467   -2.0424 C   0  0  0  0  0  0
  -32.8839    9.1428   -5.4981 C   0  0  0  0  0  0
  -35.7038    6.6899   -2.2332 C   0  0  0  0  0  0
  -36.2769    9.1028   -1.3031 C   0  0  0  0  0  0
  -34.2401    9.4910   -5.5535 C   0  0  0  0  0  0
  -36.4117    6.4991   -0.8687 C   0  0  0  0  0  0
  -34.9979    9.6522   -0.6802 C   0  0  0  0  0  0
  -35.6609    7.7534   -1.1633 C   0  0  0  0  0  0
  -34.8438   10.2384   -6.2930 C   0  0  0  0  0  0
  -32.8616    9.1086   -3.9698 C   0  0  0  0  0  0
  1  7  2  0  0  0
  1 20  1  0  0  0
  2  5  1  0  0  0
  2 17  1  0  0  0
  3  6  1  0  0  0
  3 12  1  0  0  0
  3 15  1  0  0  0
  4  6  1  0  0  0
  4 11  1  0  0  0
  4 16  1  0  0  0
  4 20  2  0  0  0
  5 14  1  0  0  0
  5 17  1  0  0  0
  6 11  1  0  0  0
  7 10  1  0  0  0
  7 20  1  0  0  0
  8  9  1  0  0  0
  8 18  1  0  0  0
  8 19  1  0  0  0
  9 12  1  0  0  0
  9 18  1  0  0  0
 10 13  1  0  0  0
 10 16  2  0  0  0
 11 12  1  0  0  0
 11 21  1  0  0  0
 12 18  1  0  0  0
 13 16  1  0  0  0
 13 21  1  0  0  0
 14 17  1  0  0  0
 14 19  1  0  0  0
 15 18  1  0  0  0
 15 19  1  0  0  0
 16 20  1  0  0  0
 17 19  1  0  0  0
M  END
> <s_m_entry_id>
116

> <s_m_entry_name>
NEW-hitrmd-var4_47_lig_gen_fit_add_gna.sdf.3

> <minimizedAffinity>
-8.77054

> <minimizedRMSD>
1.0764

> <CNNscore>
0.2823590338

> <CNNaffinity>
5.8919444084

> <CNN_VS>
1.6636437178

> <CNNaffinity_variance>
0.5892816186

> <s_m_Source_Path>
C:\Users\maila\Downloads\mgr\NEW_model_var4_hitrmd

> <s_m_Source_File>
wzakresie-NEW_model_var4_hitrmd.mae

> <i_m_Source_File_Index>
35

> <s_user_SMILES>
[C]123=[C]45[C]26=C(C1=C3)C6CC47C89C12C8C1C1(C2C9C57)C23C1C2C3

> <s_m_subgroup_title>
wzakresie-NEW_model_var4_hitrmd->NEW-hitrmd-var4_47_lig_gen_fit_add_gna

> <s_m_subgroupid>
wzakresie-NEW_model_var4_hitrmd->NEW-hitrmd-var4_47_lig_gen_fit_add_gna

> <b_m_subgroup_collapsed>
0

$$$$
CCC1C(C12C=C2)CCC(C3)=[C]3(C4=5)[C]56[C]7(=[C]468)C8=C7
                    3D
 Schrodinger Suite 2021-1.
 18 25  0  0  1  0            999 V2000
  -33.0442   17.7475  -24.7904 C   0  0  0  0  0  0
  -32.2990   16.8059  -23.8992 C   0  0  0  0  0  0
  -34.0934   13.2814  -26.4134 C   0  0  0  0  0  0
  -32.3192   16.3856  -25.4221 C   0  0  0  0  0  0
  -33.4669   16.4541  -24.6230 C   0  0  0  0  0  0
  -33.3815   15.4755  -25.7719 C   0  0  0  0  0  0
  -32.7429   12.7635  -26.1115 C   0  0  0  0  0  0
  -33.2021   14.0209  -25.3375 C   0  0  0  0  0  0
  -31.9890   14.9123  -25.6584 C   0  0  0  0  0  0
  -34.2902   13.7287  -27.8953 C   0  0  0  0  0  0
  -33.7204   12.7350  -28.9385 C   0  0  0  0  0  0
  -31.6297   13.4079  -32.2144 C   0  0  0  0  0  0
  -32.9098   13.9616  -31.8997 C   0  0  0  0  0  0
  -31.3504   12.6325  -30.1010 C   0  0  0  0  0  0
  -32.4376   12.8139  -31.2018 C   0  0  0  0  0  0
  -32.5784   13.3895  -29.7553 C   0  0  0  0  0  0
  -31.1987   11.1700  -29.6761 C   0  0  0  0  0  0
  -30.1436   11.0199  -28.5849 C   0  0  0  0  0  0
  1  2  2  0  0  0
  1  5  1  0  0  0
  2  4  1  0  0  0
  2  5  1  0  0  0
  3 10  1  0  0  0
  3  7  1  0  0  0
  3  8  2  0  0  0
  4  5  2  0  0  0
  4  6  1  0  0  0
  4  9  1  0  0  0
  5  6  1  0  0  0
  6  8  1  0  0  0
  6  9  2  0  0  0
  7  8  1  0  0  0
  8  9  1  0  0  0
 10 11  1  0  0  0
 11 16  1  0  0  0
 12 13  2  0  0  0
 12 15  1  0  0  0
 13 15  1  0  0  0
 14 17  1  0  0  0
 14 15  1  0  0  0
 14 16  1  0  0  0
 15 16  1  0  0  0
 17 18  1  0  0  0
M  END
> <i_m_stars>
0

> <s_m_entry_id>
117

> <s_m_entry_name>
NEW-hitrmd-var8_3_lig_gen_fit_add_gna.sdf.4

> <minimizedAffinity>
-8.2098

> <minimizedRMSD>
1.39475

> <CNNscore>
0.1994202882

> <CNNaffinity>
5.944278717

> <CNN_VS>
1.1854097843

> <CNNaffinity_variance>
0.1959598809

> <s_m_Source_Path>
C:\Users\maila\Downloads\mgr\NEW_model_var8_hitrmd

> <s_m_Source_File>
wzakresie-NEW-model-var8-hitrmd.mae

> <i_m_Source_File_Index>
1

> <s_user_SMILES>
CCC1C(C12C=C2)CCC(C3)=[C]3(C4=5)[C]56[C]7(=[C]468)C8=C7

> <s_m_subgroup_title>
wzakresie-NEW-model-var8-hitrmd->NEW-hitrmd-var8_3_lig_gen_fit_add_gna

> <s_m_subgroupid>
wzakresie-NEW-model-var8-hitrmd->NEW-hitrmd-var8_3_lig_gen_fit_add_gna

> <b_m_subgroup_collapsed>
0

$$$$
C1=2C(C2)=C1CC3=C(C3)C(C4)C5C4C6C5=[C]67C=C7
                    3D
 Schrodinger Suite 2021-1.
 17 23  0  0  1  0            999 V2000
  -25.0082   69.9396 -127.9649 C   0  0  0  0  0  0
  -25.4285   68.1813 -126.6873 C   0  0  0  0  0  0
  -25.2733   68.4341 -128.0819 C   0  0  0  0  0  0
  -24.3637   70.0709 -130.0045 C   0  0  0  0  0  0
  -24.0860   69.1254 -128.8193 C   0  0  0  0  0  0
  -24.5230   67.3924 -127.4608 C   0  0  0  0  0  0
  -26.4881   70.4111 -130.0702 C   0  0  0  0  0  0
  -25.4778   69.7157 -130.9932 C   0  0  0  0  0  0
  -25.3445   70.8267 -129.1548 C   0  0  0  0  0  0
  -25.1843   70.2906 -132.3903 C   0  0  0  0  0  0
  -26.2950   70.0691 -133.4275 C   0  0  0  0  0  0
  -25.9011   71.4820 -133.0053 C   0  0  0  0  0  0
  -27.7493   69.7295 -133.0570 C   0  0  0  0  0  0
  -29.1466   67.4379 -133.7799 C   0  0  0  0  0  0
  -28.8084   67.9888 -134.9940 C   0  0  0  0  0  0
  -28.1892   68.4939 -133.8079 C   0  0  0  0  0  0
  -27.8231   67.2546 -134.2837 C   0  0  0  0  0  0
  1  3  1  0  0  0
  1  5  1  0  0  0
  1  9  1  0  0  0
  2  3  1  0  0  0
  2  6  2  0  0  0
  3  5  2  0  0  0
  3  6  1  0  0  0
  4  5  1  0  0  0
  4  8  1  0  0  0
  4  9  1  0  0  0
  7  8  1  0  0  0
  7  9  1  0  0  0
  8 10  1  0  0  0
 10 11  2  0  0  0
 10 12  1  0  0  0
 11 13  1  0  0  0
 11 12  1  0  0  0
 13 16  1  0  0  0
 14 15  2  0  0  0
 14 17  1  0  0  0
 15 16  1  0  0  0
 15 17  1  0  0  0
 16 17  2  0  0  0
M  END
> <s_m_entry_id>
118

> <s_m_entry_name>
NEW-hitrmd-var8_5_lig_gen_fit_add_gna.sdf.2

> <minimizedAffinity>
-8.24492

> <minimizedRMSD>
0.55861

> <CNNscore>
0.3269314766

> <CNNaffinity>
5.8814339638

> <CNN_VS>
1.9228259325

> <CNNaffinity_variance>
0.0723315626

> <s_m_Source_Path>
C:\Users\maila\Downloads\mgr\NEW_model_var8_hitrmd

> <s_m_Source_File>
wzakresie-NEW-model-var8-hitrmd.mae

> <i_m_Source_File_Index>
2

> <s_user_SMILES>
C1=2C(C2)=C1CC3=C(C3)C(C4)C5C4C6C5=[C]67C=C7

> <s_m_subgroup_title>
wzakresie-NEW-model-var8-hitrmd->NEW-hitrmd-var8_5_lig_gen_fit_add_gna

> <s_m_subgroupid>
wzakresie-NEW-model-var8-hitrmd->NEW-hitrmd-var8_5_lig_gen_fit_add_gna

> <b_m_subgroup_collapsed>
0

$$$$
[C]123[C]45C3(C1=4)C(C=25)=C=CCC6C=C6C=7C8=[C]9([C]178)C1=C9
                    3D
 Schrodinger Suite 2021-1.
 18 27  0  0  1  0            999 V2000
  -15.9938   39.9029   -9.3167 C   0  0  0  0  0  0
  -21.5188   40.8083   -6.8897 C   0  0  0  0  0  0
  -20.5237   41.8891   -6.7550 C   0  0  0  0  0  0
  -20.0909   40.4958   -7.3343 C   0  0  0  0  0  0
  -16.2957   40.8053   -8.1585 C   0  0  0  0  0  0
  -19.2965   41.6763   -5.9473 C   0  0  0  0  0  0
  -18.6136   40.8069   -6.9593 C   0  0  0  0  0  0
  -17.4601   40.7959   -7.5669 C   0  0  0  0  0  0
  -20.4397   40.7265   -5.8741 C   0  0  0  0  0  0
  -16.0152   39.9680  -11.8841 C   0  0  0  0  0  0
  -16.1187   41.4359  -11.4831 C   0  0  0  0  0  0
  -16.7300   40.3524  -10.5903 C   0  0  0  0  0  0
  -12.7567   44.3007  -10.0327 C   0  0  0  0  0  0
  -14.8059   42.0739  -11.0183 C   0  0  0  0  0  0
  -13.9734   43.7748   -9.3171 C   0  0  0  0  0  0
  -15.0617   43.3657  -10.2850 C   0  0  0  0  0  0
  -14.1315   44.4654  -10.6821 C   0  0  0  0  0  0
  -14.4842   43.3858  -11.7169 C   0  0  0  0  0  0
  1  5  1  0  0  0
  1 12  1  0  0  0
  2  3  1  0  0  0
  2  4  1  0  0  0
  2  9  2  0  0  0
  3  4  1  0  0  0
  3  6  2  0  0  0
  3  9  1  0  0  0
  4  7  1  0  0  0
  4  9  1  0  0  0
  5  8  2  0  0  0
  6  7  1  0  0  0
  6  9  1  0  0  0
  7  8  2  0  0  0
 10 11  2  0  0  0
 10 12  1  0  0  0
 11 14  1  0  0  0
 11 12  1  0  0  0
 13 15  2  0  0  0
 13 17  1  0  0  0
 14 16  2  0  0  0
 14 18  1  0  0  0
 15 16  1  0  0  0
 15 17  1  0  0  0
 16 17  1  0  0  0
 16 18  1  0  0  0
 17 18  2  0  0  0
M  END
> <s_m_entry_id>
119

> <s_m_entry_name>
NEW-hitrmd-var8_17_lig_gen_fit_add_gna.sdf.4

> <minimizedAffinity>
-8.23368

> <minimizedRMSD>
0.60812

> <CNNscore>
0.2849574685

> <CNNaffinity>
5.524597168

> <CNN_VS>
1.5742752552

> <CNNaffinity_variance>
0.1278460771

> <s_m_Source_Path>
C:\Users\maila\Downloads\mgr\NEW_model_var8_hitrmd

> <s_m_Source_File>
wzakresie-NEW-model-var8-hitrmd.mae

> <i_m_Source_File_Index>
3

> <s_user_SMILES>
[C]123[C]45C3(C1=4)C(C=25)=C=CCC6C=C6C=7C8=[C]9([C]178)C1=C9

> <s_m_subgroup_title>
wzakresie-NEW-model-var8-hitrmd->NEW-hitrmd-var8_17_lig_gen_fit_add_gna

> <s_m_subgroupid>
wzakresie-NEW-model-var8-hitrmd->NEW-hitrmd-var8_17_lig_gen_fit_add_gna

> <b_m_subgroup_collapsed>
0

$$$$
C1C2[C]=13C=C4C(C=CC5CC5)=[C]67[C]34=[C]27C68C19C8C9C1
                    3D
 Schrodinger Suite 2021-1.
 19 28  0  0  1  0            999 V2000
  -20.8793   40.0085   -7.2378 C   0  0  0  0  0  0
  -19.5084   40.5852   -6.9205 C   0  0  0  0  0  0
  -19.8909   40.1319   -8.3447 C   0  0  0  0  0  0
  -19.1497   42.0185   -6.8982 C   0  0  0  0  0  0
  -15.6972   39.5046  -11.1088 C   0  0  0  0  0  0
  -18.6467   39.3068   -8.3326 C   0  0  0  0  0  0
  -17.0670   38.9141  -10.9067 C   0  0  0  0  0  0
  -18.0671   40.0327   -7.0909 C   0  0  0  0  0  0
  -17.8203   39.1320   -9.5916 C   0  0  0  0  0  0
  -18.1439   39.9674  -10.8349 C   0  0  0  0  0  0
  -17.2318   39.9063   -8.4053 C   0  0  0  0  0  0
  -17.0302   41.4049   -8.4959 C   0  0  0  0  0  0
  -17.6975   41.5687   -7.1312 C   0  0  0  0  0  0
  -16.9003   40.2447  -11.6646 C   0  0  0  0  0  0
  -14.9308   42.7439   -9.0030 C   0  0  0  0  0  0
  -15.5418   41.6702   -8.4739 C   0  0  0  0  0  0
  -15.8465   45.0489   -8.4105 C   0  0  0  0  0  0
  -15.6229   43.9851   -9.4771 C   0  0  0  0  0  0
  -14.7196   45.2115   -9.4128 C   0  0  0  0  0  0
  1  2  2  0  0  0
  1  3  1  0  0  0
  2  3  1  0  0  0
  2  4  1  0  0  0
  2  8  1  0  0  0
  3  6  1  0  0  0
  4 13  2  0  0  0
  5  7  1  0  0  0
  5 14  1  0  0  0
  6  8  2  0  0  0
  6  9  1  0  0  0
  6 11  1  0  0  0
  7  9  1  0  0  0
  7 10  1  0  0  0
  7 14  1  0  0  0
  8 11  1  0  0  0
  8 13  1  0  0  0
  9 10  1  0  0  0
  9 11  1  0  0  0
 10 14  1  0  0  0
 11 12  2  0  0  0
 12 16  1  0  0  0
 12 13  1  0  0  0
 15 18  1  0  0  0
 15 16  2  0  0  0
 17 18  1  0  0  0
 17 19  1  0  0  0
 18 19  1  0  0  0
M  END
> <s_m_entry_id>
120

> <s_m_entry_name>
NEW-hitrmd-var8_17_lig_gen_fit_add_gna.sdf.6

> <minimizedAffinity>
-8.39128

> <minimizedRMSD>
0.6301

> <CNNscore>
0.3417894542

> <CNNaffinity>
6.060210228

> <CNN_VS>
2.0713160038

> <CNNaffinity_variance>
0.0524554141

> <s_m_Source_Path>
C:\Users\maila\Downloads\mgr\NEW_model_var8_hitrmd

> <s_m_Source_File>
wzakresie-NEW-model-var8-hitrmd.mae

> <i_m_Source_File_Index>
4

> <s_user_SMILES>
C1C2[C]=13C=C4C(C=CC5CC5)=[C]67[C]34=[C]27C68C19C8C9C1

> <s_m_subgroup_title>
wzakresie-NEW-model-var8-hitrmd->NEW-hitrmd-var8_17_lig_gen_fit_add_gna

> <s_m_subgroupid>
wzakresie-NEW-model-var8-hitrmd->NEW-hitrmd-var8_17_lig_gen_fit_add_gna

> <b_m_subgroup_collapsed>
0

$$$$
CCC1=C2[C]3([C]45=[C]123)=C4C56C7[C]89[C]=1(C=9C1)C8=C7C6
                    3D
 Schrodinger Suite 2021-1.
 17 26  0  0  1  0            999 V2000
  -17.0024   40.8992  -11.3186 C   0  0  0  0  0  0
  -21.5443   41.5952   -6.4860 C   0  0  0  0  0  0
  -22.3789   42.6214   -6.8353 C   0  0  0  0  0  0
  -19.2122   40.0717  -12.1085 C   0  0  0  0  0  0
  -19.4285   40.7773   -7.6427 C   0  0  0  0  0  0
  -19.9863   41.0250  -11.2187 C   0  0  0  0  0  0
  -17.8787   40.6610  -12.5240 C   0  0  0  0  0  0
  -18.4758   41.2094   -8.7616 C   0  0  0  0  0  0
  -22.6637   41.2202   -7.2645 C   0  0  0  0  0  0
  -17.9439   39.6851  -11.3593 C   0  0  0  0  0  0
  -20.1371   41.8974   -6.9153 C   0  0  0  0  0  0
  -19.6179   40.9759   -9.7321 C   0  0  0  0  0  0
  -21.2970   41.7963   -7.8520 C   0  0  0  0  0  0
  -19.3089   39.7743  -10.6405 C   0  0  0  0  0  0
  -20.5914   40.6297   -8.6001 C   0  0  0  0  0  0
  -14.6517   41.7687  -11.2473 C   0  0  0  0  0  0
  -15.5286   40.5385  -11.4616 C   0  0  0  0  0  0
  1  7  2  0  0  0
  1 10  1  0  0  0
  1 17  1  0  0  0
  2  3  2  0  0  0
  2  9  1  0  0  0
  2 11  1  0  0  0
  2 13  1  0  0  0
  3  9  1  0  0  0
  4  6  2  0  0  0
  4  7  1  0  0  0
  4 10  1  0  0  0
  4 14  1  0  0  0
  5  8  1  0  0  0
  5 11  2  0  0  0
  5 15  1  0  0  0
  6 12  1  0  0  0
  6 14  1  0  0  0
  7 10  1  0  0  0
  8 12  1  0  0  0
  9 13  2  0  0  0
 10 14  2  0  0  0
 11 13  1  0  0  0
 12 14  1  0  0  0
 12 15  1  0  0  0
 13 15  1  0  0  0
 16 17  1  0  0  0
M  END
> <s_m_entry_id>
121

> <s_m_entry_name>
NEW-hitrmd-var8_21_lig_gen_fit_add_gna.sdf.6

> <minimizedAffinity>
-8.42568

> <minimizedRMSD>
0.53271

> <CNNscore>
0.5664702058

> <CNNaffinity>
5.5596857071

> <CNN_VS>
3.1493964195

> <CNNaffinity_variance>
0.3342757821

> <s_m_Source_Path>
C:\Users\maila\Downloads\mgr\NEW_model_var8_hitrmd

> <s_m_Source_File>
wzakresie-NEW-model-var8-hitrmd.mae

> <i_m_Source_File_Index>
5

> <s_user_SMILES>
CCC1=C2[C]3([C]45=[C]123)=C4C56C7[C]89[C]=1(C=9C1)C8=C7C6

> <s_m_subgroup_title>
wzakresie-NEW-model-var8-hitrmd->NEW-hitrmd-var8_21_lig_gen_fit_add_gna

> <s_m_subgroupid>
wzakresie-NEW-model-var8-hitrmd->NEW-hitrmd-var8_21_lig_gen_fit_add_gna

> <b_m_subgroup_collapsed>
0

$$$$
[C]1=23C4(C2)C1(C4)C3C5C6(C)C57C68C7(C189)C29[C]13=[C]12[C]=23[C]1=3C2C3
                    3D
 Schrodinger Suite 2021-1.
 20 34  0  0  1  0            999 V2000
  -17.6985   46.5924  -11.4040 C   0  0  0  0  0  0
  -18.4060   45.4986  -12.1737 C   0  0  0  0  0  0
  -16.2866   46.7196  -11.4776 C   0  0  0  0  0  0
  -17.1842   46.0876  -12.6122 C   0  0  0  0  0  0
  -18.6397   40.6807  -11.5902 C   0  0  0  0  0  0
  -17.2354   47.6824  -12.1095 C   0  0  0  0  0  0
  -18.9887   43.0460  -13.0205 C   0  0  0  0  0  0
  -16.4695   41.8049  -11.3436 C   0  0  0  0  0  0
  -17.7664   42.1566  -13.5037 C   0  0  0  0  0  0
  -17.1357   44.5838  -12.4191 C   0  0  0  0  0  0
  -18.9067   41.5299  -12.8081 C   0  0  0  0  0  0
  -18.3614   43.9949  -12.0006 C   0  0  0  0  0  0
  -17.4291   41.1810  -12.3641 C   0  0  0  0  0  0
  -17.7388   43.6707  -13.4252 C   0  0  0  0  0  0
  -19.0398   42.0376   -7.9586 C   0  0  0  0  0  0
  -20.9669   40.5245   -8.6246 C   0  0  0  0  0  0
  -19.3025   41.3088  -10.3661 C   0  0  0  0  0  0
  -18.5804   41.0773   -9.0453 C   0  0  0  0  0  0
  -19.5844   40.6201   -7.9964 C   0  0  0  0  0  0
  -19.7413   40.1814   -9.4396 C   0  0  0  0  0  0
  1  2  1  0  0  0
  1  3  1  0  0  0
  1  4  1  0  0  0
  1  6  2  0  0  0
  2  4  1  0  0  0
  2 10  2  0  0  0
  2 12  1  0  0  0
  3  4  2  0  0  0
  3  6  1  0  0  0
  4 10  1  0  0  0
  5 17  1  0  0  0
  5 11  1  0  0  0
  5 13  1  0  0  0
  7  9  1  0  0  0
  7 11  1  0  0  0
  7 12  1  0  0  0
  7 14  1  0  0  0
  8 13  1  0  0  0
  9 11  1  0  0  0
  9 13  1  0  0  0
  9 14  1  0  0  0
 10 12  1  0  0  0
 10 14  1  0  0  0
 11 13  1  0  0  0
 12 14  1  0  0  0
 15 18  2  0  0  0
 15 19  1  0  0  0
 16 19  1  0  0  0
 16 20  1  0  0  0
 17 18  1  0  0  0
 17 20  1  0  0  0
 18 19  1  0  0  0
 18 20  1  0  0  0
 19 20  1  0  0  0
M  END
> <s_m_entry_id>
122

> <s_m_entry_name>
NEW-hitrmd-var8_27_lig_gen_fit_add_gna.sdf.1

> <minimizedAffinity>
-8.69667

> <minimizedRMSD>
2.12667

> <CNNscore>
0.3049450517

> <CNNaffinity>
5.6667256355

> <CNN_VS>
1.7280399799

> <CNNaffinity_variance>
0.0728432611

> <s_m_Source_Path>
C:\Users\maila\Downloads\mgr\NEW_model_var8_hitrmd

> <s_m_Source_File>
wzakresie-NEW-model-var8-hitrmd.mae

> <i_m_Source_File_Index>
6

> <s_user_SMILES>
[C]1=23C4(C2)C1(C4)C3C5C6(C)C57C68C7(C189)C29[C]13=[C]12[C]=23[C]1=3C2C3

> <s_m_subgroup_title>
wzakresie-NEW-model-var8-hitrmd->NEW-hitrmd-var8_27_lig_gen_fit_add_gna

> <s_m_subgroupid>
wzakresie-NEW-model-var8-hitrmd->NEW-hitrmd-var8_27_lig_gen_fit_add_gna

> <b_m_subgroup_collapsed>
0

$$$$
CC1C(C1C234)C4(C)CC3C2C5C6C5C7[C]=8(C679)C9C8
                    3D
 Schrodinger Suite 2021-1.
 18 26  0  0  1  0            999 V2000
  -18.1905   42.4845  -11.7040 C   0  0  0  0  0  0
  -17.2047   40.9302   -9.4570 C   0  0  0  0  0  0
  -17.3498   40.2815  -10.7958 C   0  0  0  0  0  0
  -16.1128   40.3004  -11.6462 C   0  0  0  0  0  0
  -16.0999   41.8372  -11.5930 C   0  0  0  0  0  0
  -17.6801   43.8037  -12.2675 C   0  0  0  0  0  0
  -14.9154   42.6072  -10.9814 C   0  0  0  0  0  0
  -16.9581   42.5378  -12.6543 C   0  0  0  0  0  0
  -18.4187   44.3918  -13.4653 C   0  0  0  0  0  0
  -17.2697   41.8350  -10.6757 C   0  0  0  0  0  0
  -21.6425   41.8396   -6.1107 C   0  0  0  0  0  0
  -21.5194   41.9292   -7.4726 C   0  0  0  0  0  0
  -20.8180   40.7044   -8.0149 C   0  0  0  0  0  0
  -19.1016   41.9365   -8.0356 C   0  0  0  0  0  0
  -20.2259   41.6507   -7.0311 C   0  0  0  0  0  0
  -20.9850   43.0162   -6.7392 C   0  0  0  0  0  0
  -19.7555   40.9860   -9.0231 C   0  0  0  0  0  0
  -18.3708   40.7023   -8.5277 C   0  0  0  0  0  0
  1  6  1  0  0  0
  1  8  1  0  0  0
  1 10  1  0  0  0
  2  3  1  0  0  0
  2 18  1  0  0  0
  2 10  1  0  0  0
  3  4  1  0  0  0
  3 10  1  0  0  0
  4  5  1  0  0  0
  5  7  1  0  0  0
  5  8  1  0  0  0
  5 10  1  0  0  0
  6  8  1  0  0  0
  6  9  1  0  0  0
 11 12  2  0  0  0
 11 16  1  0  0  0
 12 13  1  0  0  0
 12 15  1  0  0  0
 12 16  1  0  0  0
 13 15  1  0  0  0
 13 17  1  0  0  0
 14 15  1  0  0  0
 14 17  1  0  0  0
 14 18  1  0  0  0
 15 16  1  0  0  0
 17 18  1  0  0  0
M  END
> <s_m_entry_id>
123

> <s_m_entry_name>
NEW-hitrmd-var8_32_lig_gen_fit_add_gna.sdf.5

> <minimizedAffinity>
-8.94831

> <minimizedRMSD>
0.87411

> <CNNscore>
0.4973051846

> <CNNaffinity>
5.6468896866

> <CNN_VS>
2.8082275391

> <CNNaffinity_variance>
0.3224259019

> <s_m_Source_Path>
C:\Users\maila\Downloads\mgr\NEW_model_var8_hitrmd

> <s_m_Source_File>
wzakresie-NEW-model-var8-hitrmd.mae

> <i_m_Source_File_Index>
7

> <s_user_SMILES>
CC1C(C1C234)C4(C)CC3C2C5C6C5C7[C]=8(C679)C9C8

> <s_m_subgroup_title>
wzakresie-NEW-model-var8-hitrmd->NEW-hitrmd-var8_32_lig_gen_fit_add_gna

> <s_m_subgroupid>
wzakresie-NEW-model-var8-hitrmd->NEW-hitrmd-var8_32_lig_gen_fit_add_gna

> <b_m_subgroup_collapsed>
0

$$$$
CC[C@@H](C)C[C@@H]1[C@H]([C@]123)[C@@H]2[C@@H]4C=5[C@@H](C5)CC=C=C34
                    3D
 Schrodinger Suite 2021-1.
 17 21  0  0  1  0            999 V2000
  -23.8097   70.7583 -128.7451 C   0  0  2  0  0  0
  -25.0408   70.5180 -129.6048 C   0  0  2  0  0  0
  -23.3842   67.7700 -126.2163 C   0  0  0  0  0  0
  -26.0245   71.6724 -129.6473 C   0  0  2  0  0  0
  -24.7657   67.9459 -126.2968 C   0  0  2  0  0  0
  -23.9465   70.4209 -127.2850 C   0  0  2  0  0  0
  -26.6875   69.4276 -125.6463 C   0  0  0  0  0  0
  -23.9562   68.9810 -126.7879 C   0  0  0  0  0  0
  -26.2475   70.3707 -126.4370 C   0  0  0  0  0  0
  -25.3357   70.9719 -127.1406 C   0  0  0  0  0  0
  -25.6424   68.4484 -125.1229 C   0  0  0  0  0  0
  -25.0292   71.5943 -128.5052 C   0  0  2  0  0  0
  -27.4931   71.4508 -129.2408 C   0  0  0  0  0  0
  -28.4696   71.7043 -130.4181 C   0  0  2  0  0  0
  -29.2678   72.9932 -130.1681 C   0  0  0  0  0  0
  -29.1327   69.6783 -131.8596 C   0  0  0  0  0  0
  -29.4588   70.5367 -130.6376 C   0  0  0  0  0  0
  1  2  1  0  0  0
  1  6  1  0  0  0
  1 12  1  0  0  0
  2  4  1  0  0  0
  2 12  1  0  0  0
  3  5  1  0  0  0
  3  8  2  0  0  0
  4 12  1  0  0  0
  4 13  1  0  0  0
  5  8  1  0  0  0
  5 11  1  0  0  0
  6  8  1  0  0  0
  6 10  1  0  0  0
  7  9  2  0  0  0
  7 11  1  0  0  0
  9 10  2  0  0  0
 10 12  1  0  0  0
 13 14  1  0  0  0
 14 17  1  0  0  0
 14 15  1  0  0  0
 16 17  1  0  0  0
M  END
> <s_m_entry_id>
124

> <s_m_entry_name>
NEW-hitrmd-var8_43_lig_gen_fit_add_gna.sdf.4

> <minimizedAffinity>
-8.24725

> <minimizedRMSD>
1.04372

> <CNNscore>
0.3584082723

> <CNNaffinity>
5.5992336273

> <CNN_VS>
2.0068116188

> <CNNaffinity_variance>
0.2422170639

> <s_m_Source_Path>
C:\Users\maila\Downloads\mgr\NEW_model_var8_hitrmd

> <s_m_Source_File>
wzakresie-NEW-model-var8-hitrmd.mae

> <i_m_Source_File_Index>
8

> <s_user_SMILES>
CC[C@@H](C)C[C@@H]1[C@H]([C@]123)[C@@H]2[C@@H]4C=5[C@@H](C5)CC=C=C34

> <s_m_subgroup_title>
wzakresie-NEW-model-var8-hitrmd->NEW-hitrmd-var8_43_lig_gen_fit_add_gna

> <s_m_subgroupid>
wzakresie-NEW-model-var8-hitrmd->NEW-hitrmd-var8_43_lig_gen_fit_add_gna

> <b_m_subgroup_collapsed>
0

$$$$
CC=1C2C(C=C3C)C3([C]124)C4C5[C]6(=[C]578)[C]7(=C8)C6
                    3D
 Schrodinger Suite 2021-1.
 16 23  0  0  1  0            999 V2000
   27.1605   11.6666   18.2048 C   0  0  0  0  0  0
   28.5510   14.4449   19.0235 C   0  0  0  0  0  0
   29.1152   16.8839   18.1643 C   0  0  0  0  0  0
   29.5189   15.6530   18.9825 C   0  0  0  0  0  0
   29.7126   12.0982   17.7472 C   0  0  0  0  0  0
   28.5311   12.0741   18.5058 C   0  0  0  0  0  0
   29.1432   13.0358   19.4380 C   0  0  0  0  0  0
   28.6266   13.9683   20.4823 C   0  0  0  0  0  0
   29.7737   14.5338   18.0603 C   0  0  0  0  0  0
   30.2512   13.2127   18.5914 C   0  0  0  0  0  0
   24.8458   13.3104   21.8088 C   0  0  0  0  0  0
   25.4206   14.6092   22.3291 C   0  0  0  0  0  0
   26.0088   13.9551   21.0844 C   0  0  0  0  0  0
   26.3906   14.4083   23.4877 C   0  0  0  0  0  0
   26.9100   14.6767   22.0833 C   0  0  0  0  0  0
   27.4254   13.4524   21.3273 C   0  0  0  0  0  0
  1  6  1  0  0  0
  2  4  2  0  0  0
  2  7  1  0  0  0
  2  8  1  0  0  0
  2  9  1  0  0  0
  3  4  1  0  0  0
  4  9  1  0  0  0
  5  6  2  0  0  0
  5 10  1  0  0  0
  6  7  1  0  0  0
  7  8  1  0  0  0
  7 10  1  0  0  0
  8 16  1  0  0  0
  9 10  1  0  0  0
 11 12  2  0  0  0
 11 13  1  0  0  0
 12 13  1  0  0  0
 12 14  1  0  0  0
 12 15  1  0  0  0
 13 15  2  0  0  0
 13 16  1  0  0  0
 14 15  1  0  0  0
 15 16  1  0  0  0
M  END
> <s_m_entry_id>
125

> <s_m_entry_name>
NEW-hitrmd-var8_45_lig_gen_fit_add_gna.sdf.1

> <minimizedAffinity>
-8.02955

> <minimizedRMSD>
0.51309

> <CNNscore>
0.4012010396

> <CNNaffinity>
5.6638021469

> <CNN_VS>
2.27232337

> <CNNaffinity_variance>
0.1791067272

> <s_m_Source_Path>
C:\Users\maila\Downloads\mgr\NEW_model_var8_hitrmd

> <s_m_Source_File>
wzakresie-NEW-model-var8-hitrmd.mae

> <i_m_Source_File_Index>
9

> <s_user_SMILES>
CC=1C2C(C=C3C)C3([C]124)C4C5[C]6(=[C]578)[C]7(=C8)C6

> <s_m_subgroup_title>
wzakresie-NEW-model-var8-hitrmd->NEW-hitrmd-var8_45_lig_gen_fit_add_gna

> <s_m_subgroupid>
wzakresie-NEW-model-var8-hitrmd->NEW-hitrmd-var8_45_lig_gen_fit_add_gna

> <b_m_subgroup_collapsed>
0

$$$$
CC1=C2C=[C]3([C]124)C5(C3=4)C67C8(C56)C7C8C9C(C19)C1
                    3D
 Schrodinger Suite 2021-1.
 17 26  0  0  1  0            999 V2000
   26.0317   13.7280   22.5878 C   0  0  0  0  0  0
   27.0378   12.7941   20.5114 C   0  0  0  0  0  0
   27.1828   14.6320   22.3644 C   0  0  0  0  0  0
   29.6347   14.1960   17.4660 C   0  0  0  0  0  0
   24.7549   14.0574   21.8722 C   0  0  0  0  0  0
   27.5516   13.6325   18.4293 C   0  0  0  0  0  0
   28.2260   12.8454   19.5218 C   0  0  0  0  0  0
   28.7809   15.0569   16.5716 C   0  0  0  0  0  0
   27.2995   13.0896   21.9958 C   0  0  0  0  0  0
   28.0869   14.9106   21.1942 C   0  0  0  0  0  0
   28.3124   13.4452   20.9464 C   0  0  0  0  0  0
   29.0256   13.9651   18.8284 C   0  0  0  0  0  0
   28.2859   14.8531   17.9699 C   0  0  0  0  0  0
   29.0318   18.6267   17.6936 C   0  0  0  0  0  0
   29.6904   17.2895   17.6286 C   0  0  0  0  0  0
   28.3766   17.5611   16.8392 C   0  0  0  0  0  0
   29.3434   16.4786   16.3967 C   0  0  0  0  0  0
  1  3  2  0  0  0
  1  5  1  0  0  0
  1  9  1  0  0  0
  2  7  1  0  0  0
  2  9  2  0  0  0
  2 11  1  0  0  0
  3  9  1  0  0  0
  3 10  1  0  0  0
  4  8  1  0  0  0
  4 12  1  0  0  0
  4 13  1  0  0  0
  6  7  1  0  0  0
  6 12  1  0  0  0
  6 13  1  0  0  0
  7 11  1  0  0  0
  7 12  1  0  0  0
  8 17  1  0  0  0
  8 13  1  0  0  0
  9 11  1  0  0  0
 10 11  2  0  0  0
 12 13  1  0  0  0
 14 15  1  0  0  0
 14 16  1  0  0  0
 15 16  1  0  0  0
 15 17  1  0  0  0
 16 17  1  0  0  0
M  END
> <s_m_entry_id>
126

> <s_m_entry_name>
NEW-hitrmd-var8_45_lig_gen_fit_add_gna.sdf.7

> <minimizedAffinity>
-8.46109

> <minimizedRMSD>
0.74724

> <CNNscore>
0.322606355

> <CNNaffinity>
5.7086658478

> <CNN_VS>
1.8416519165

> <CNNaffinity_variance>
0.0974623412

> <s_m_Source_Path>
C:\Users\maila\Downloads\mgr\NEW_model_var8_hitrmd

> <s_m_Source_File>
wzakresie-NEW-model-var8-hitrmd.mae

> <i_m_Source_File_Index>
10

> <s_user_SMILES>
CC1=C2C=[C]3([C]124)C5(C3=4)C67C8(C56)C7C8C9C(C19)C1

> <s_m_subgroup_title>
wzakresie-NEW-model-var8-hitrmd->NEW-hitrmd-var8_45_lig_gen_fit_add_gna

> <s_m_subgroupid>
wzakresie-NEW-model-var8-hitrmd->NEW-hitrmd-var8_45_lig_gen_fit_add_gna

> <b_m_subgroup_collapsed>
0

$$$$
CCC12CC3C4(C23C156)C5(C4)[C]78=[C]19[C]67=C[C]1=2[C]89=CC2
                    3D
 Schrodinger Suite 2021-1.
 18 28  0  0  1  0            999 V2000
   27.6449   14.9693   21.9793 C   0  0  0  0  0  0
   24.4993   13.6440   22.5194 C   0  0  0  0  0  0
   30.2139   13.5172   17.9665 C   0  0  0  0  0  0
   25.4771   13.7466   21.3593 C   0  0  0  0  0  0
   27.9152   13.5666   21.3476 C   0  0  0  0  0  0
   26.9317   11.6456   18.8401 C   0  0  0  0  0  0
   26.1759   14.6956   22.1537 C   0  0  0  0  0  0
   25.2309   14.6020   23.2635 C   0  0  0  0  0  0
   29.3752   12.2981   18.0908 C   0  0  0  0  0  0
   27.8807   12.5513   18.2887 C   0  0  0  0  0  0
   26.9049   13.1671   19.3249 C   0  0  0  0  0  0
   28.1332   13.8410   19.8718 C   0  0  0  0  0  0
   29.5317   14.2198   19.1702 C   0  0  0  0  0  0
   26.5699   12.7791   20.8045 C   0  0  0  0  0  0
   26.6596   13.2929   22.0816 C   0  0  0  0  0  0
   28.9550   12.7927   19.3809 C   0  0  0  0  0  0
   29.1158   15.6226   18.6013 C   0  0  0  0  0  0
   28.9771   15.8050   17.0749 C   0  0  0  0  0  0
  1  5  2  0  0  0
  1  7  1  0  0  0
  2  4  2  0  0  0
  2  8  1  0  0  0
  3  9  1  0  0  0
  3 13  1  0  0  0
  4  7  1  0  0  0
  4 14  1  0  0  0
  4 15  1  0  0  0
  5 12  1  0  0  0
  5 14  1  0  0  0
  5 15  1  0  0  0
  6 10  1  0  0  0
  6 11  1  0  0  0
  7  8  2  0  0  0
  7 15  1  0  0  0
  9 10  1  0  0  0
  9 16  1  0  0  0
 10 11  1  0  0  0
 10 16  1  0  0  0
 11 12  1  0  0  0
 11 14  1  0  0  0
 12 13  1  0  0  0
 12 16  1  0  0  0
 13 17  1  0  0  0
 13 16  1  0  0  0
 14 15  2  0  0  0
 17 18  1  0  0  0
M  END
> <s_m_entry_id>
127

> <s_m_entry_name>
NEW-hitrmd-var8_45_lig_gen_fit_add_gna.sdf.9

> <minimizedAffinity>
-8.92147

> <minimizedRMSD>
0.73533

> <CNNscore>
0.4656732678

> <CNNaffinity>
5.5772809982

> <CNN_VS>
2.5971906185

> <CNNaffinity_variance>
0.7521348596

> <s_m_Source_Path>
C:\Users\maila\Downloads\mgr\NEW_model_var8_hitrmd

> <s_m_Source_File>
wzakresie-NEW-model-var8-hitrmd.mae

> <i_m_Source_File_Index>
11

> <s_user_SMILES>
CCC12CC3C4(C23C156)C5(C4)[C]78=[C]19[C]67=C[C]1=2[C]89=CC2

> <s_m_subgroup_title>
wzakresie-NEW-model-var8-hitrmd->NEW-hitrmd-var8_45_lig_gen_fit_add_gna

> <s_m_subgroupid>
wzakresie-NEW-model-var8-hitrmd->NEW-hitrmd-var8_45_lig_gen_fit_add_gna

> <b_m_subgroup_collapsed>
0

$$$$
CC1=C2[C]1(=C34)[C]23=[C]4(C56)C6C(C7(C8=9)[C]59C178)CC12C13C4(C12)C3C4
                    3D
 Schrodinger Suite 2021-1.
 21 34  0  0  1  0            999 V2000
  -34.2337    6.9893    0.4961 C   0  0  0  0  0  0
  -33.8001   10.7597   -4.5603 C   0  0  0  0  0  0
  -32.9241    9.4599   -4.5660 C   0  0  0  0  0  0
  -34.4965    9.4231   -1.3407 C   0  0  0  0  0  0
  -34.7981    9.1433   -2.8296 C   0  0  0  0  0  0
  -33.3275   10.1343   -5.8508 C   0  0  0  0  0  0
  -36.3759    3.6545   -1.5362 C   0  0  0  0  0  0
  -35.5408    4.8007   -2.1097 C   0  0  0  0  0  0
  -34.0028    8.2199   -0.5075 C   0  0  0  0  0  0
  -36.9092    7.0263   -1.6157 C   0  0  0  0  0  0
  -33.6186    9.9996   -3.3224 C   0  0  0  0  0  0
  -35.7520    6.0991   -1.3445 C   0  0  0  0  0  0
  -37.4020    4.2412   -0.5659 C   0  0  0  0  0  0
  -35.3009    7.8790    0.0590 C   0  0  0  0  0  0
  -37.8625    3.7151   -1.8967 C   0  0  0  0  0  0
  -35.9112    9.3808   -1.7377 C   0  0  0  0  0  0
  -35.0280   10.3385   -3.7893 C   0  0  0  0  0  0
  -34.4226    9.5543   -6.7354 C   0  0  0  0  0  0
  -34.5035    6.8533   -0.9218 C   0  0  0  0  0  0
  -36.4519    8.2597   -0.8749 C   0  0  0  0  0  0
  -35.9833    4.7763   -0.6237 C   0  0  0  0  0  0
  1  9  2  0  0  0
  1 14  1  0  0  0
  1 19  1  0  0  0
  2  3  1  0  0  0
  2  6  1  0  0  0
  2 11  1  0  0  0
  2 17  2  0  0  0
  3  6  2  0  0  0
  3 11  1  0  0  0
  4  5  1  0  0  0
  4  9  1  0  0  0
  4 16  1  0  0  0
  5 11  2  0  0  0
  5 16  1  0  0  0
  5 17  1  0  0  0
  6 18  1  0  0  0
  7  8  1  0  0  0
  7 13  1  0  0  0
  7 15  1  0  0  0
  7 21  1  0  0  0
  8 12  1  0  0  0
  8 21  1  0  0  0
  9 14  1  0  0  0
  9 19  1  0  0  0
 10 12  1  0  0  0
 10 20  1  0  0  0
 11 17  1  0  0  0
 12 19  1  0  0  0
 12 21  1  0  0  0
 13 15  1  0  0  0
 13 21  1  0  0  0
 14 19  1  0  0  0
 14 20  1  0  0  0
 16 20  1  0  0  0
M  END
> <s_m_entry_id>
128

> <s_m_entry_name>
NEW-hitrmd-var8_46_lig_gen_fit_add_gna.sdf.7

> <minimizedAffinity>
-10.56764

> <minimizedRMSD>
0.94769

> <CNNscore>
0.1796091348

> <CNNaffinity>
6.3165235519

> <CNN_VS>
1.1345052719

> <CNNaffinity_variance>
0.2046284378

> <s_m_Source_Path>
C:\Users\maila\Downloads\mgr\NEW_model_var8_hitrmd

> <s_m_Source_File>
wzakresie-NEW-model-var8-hitrmd.mae

> <i_m_Source_File_Index>
12

> <s_user_SMILES>
CC1=C2[C]1(=C34)[C]23=[C]4(C56)C6C(C7(C8=9)[C]59C178)CC12C13C4(C12)C3C4

> <s_m_subgroup_title>
wzakresie-NEW-model-var8-hitrmd->NEW-hitrmd-var8_46_lig_gen_fit_add_gna

> <s_m_subgroupid>
wzakresie-NEW-model-var8-hitrmd->NEW-hitrmd-var8_46_lig_gen_fit_add_gna

> <b_m_subgroup_collapsed>
0

$$$$
