CCCCCC[C@@H]([C@@H](C)O)C[C@]1(C234)[C@]2(O)[C@]5(O)C6([C@@]5(O6)O)[C@]4(O)[C@@H]7[C@H]([C@H]13)[C@@H]7OC
                    3D
 Schrodinger Suite 2021-1.
 34 40  0  0  1  0            999 V2000
  -24.4607  -19.7668    6.0286 C   0  0  2  0  0  0
  -24.9643  -18.6921    6.9650 C   0  0  1  0  0  0
  -25.5500  -17.0667    4.2581 C   0  0  2  0  0  0
  -23.5859  -19.5878    4.8083 C   0  0  2  0  0  0
  -26.1718  -17.9046    6.4558 C   0  0  2  0  0  0
  -22.6591  -20.9311    3.1568 O   0  0  0  0  0  0
  -25.8130  -19.1545    5.6960 C   0  0  3  0  0  0
  -24.2903  -19.0832    3.6062 C   0  0  3  0  0  0
  -24.6305  -20.0645    2.6594 O   0  0  0  0  0  0
  -23.8824  -20.5762    3.7146 C   0  0  2  0  0  0
  -22.2505  -19.1921    4.9540 O   0  0  0  0  0  0
  -26.8017  -16.2371    4.5503 C   0  0  2  0  0  0
  -26.7228  -18.9740    3.4350 O   0  0  0  0  0  0
  -25.6208  -18.6017    4.2362 C   0  0  2  0  0  0
  -25.8625  -16.6515    5.6656 C   0  0  2  0  0  0
  -24.5574  -21.0637    6.4795 O   0  0  0  0  0  0
  -22.6705  -21.9206    3.1613 H   0  0  0  0  0  0
  -21.8185  -19.8936    5.5089 H   0  0  0  0  0  0
  -26.9436  -19.9238    3.6311 H   0  0  0  0  0  0
  -23.6889  -21.5060    6.2992 H   0  0  0  0  0  0
  -29.0727  -15.9830    4.4269 C   0  0  0  0  0  0
  -28.0280  -16.9321    4.5146 O   0  0  0  0  0  0
  -25.4327  -19.2298    8.3926 C   0  0  0  0  0  0
  -24.5270  -19.8235    9.5558 C   0  0  2  0  0  0
  -25.0504  -22.1932    9.4944 O   0  0  0  0  0  0
  -24.0021  -21.2755    9.3673 C   0  0  2  0  0  0
  -22.8418  -21.7075   10.2762 C   0  0  0  0  0  0
  -24.7202  -23.0431    9.1070 H   0  0  0  0  0  0
  -25.2605  -19.6178   10.9267 C   0  0  0  0  0  0
  -24.4078  -19.4114   12.2036 C   0  0  0  0  0  0
  -23.2272  -18.4242   12.0802 C   0  0  0  0  0  0
  -22.1593  -18.5959   13.1735 C   0  0  0  0  0  0
  -20.8109  -17.9396   12.8019 C   0  0  0  0  0  0
  -20.8732  -16.4120   12.7681 C   0  0  0  0  0  0
  1  2  1  0  0  0
  1  4  1  0  0  0
  1  7  1  0  0  0
  1 16  1  0  0  0
  2  5  1  0  0  0
  2  7  1  0  0  0
  2 23  1  0  0  0
  3 12  1  0  0  0
  3 14  1  0  0  0
  3 15  1  0  0  0
  4  8  1  0  0  0
  4 10  1  0  0  0
  4 11  1  0  0  0
  5  7  1  0  0  0
  5 15  1  0  0  0
  6 10  1  0  0  0
  6 17  1  0  0  0
  7 14  1  0  0  0
  8  9  1  0  0  0
  8 10  1  0  0  0
  8 14  1  0  0  0
  9 10  1  0  0  0
 11 18  1  0  0  0
 12 22  1  0  0  0
 12 15  1  0  0  0
 13 14  1  0  0  0
 13 19  1  0  0  0
 16 20  1  0  0  0
 21 22  1  0  0  0
 23 24  1  0  0  0
 24 29  1  0  0  0
 24 26  1  0  0  0
 25 26  1  0  0  0
 25 28  1  0  0  0
 26 27  1  0  0  0
 29 30  1  0  0  0
 30 31  1  0  0  0
 31 32  1  0  0  0
 32 33  1  0  0  0
 33 34  1  0  0  0
M  END
> <s_m_entry_id>
694

> <s_m_entry_name>
myco-prior-var1_4_lig_gen_fit_add_gna.sdf.1

> <s_m_Source_Path>
C:\Users\maila\Downloads\mgr\myco-analysis

> <s_m_Source_File>
myco-10-prior-wzakresie.mae

> <i_m_Source_File_Index>
1

> <s_user_SMILES>
CCCCCC[C@@H]([C@@H](C)O)C[C@]1(C234)[C@]2(O)[C@]5(O)C6([C@@]5(O6)O)[C@]4(O)[C@@H]7[C@H]([C@H]13)[C@@H]7OC

> <minimizedAffinity>
-8.64657

> <minimizedRMSD>
0.36899

> <CNNscore>
0.3139452636

> <CNNaffinity>
6.1511454582

> <CNN_VS>
1.9311230183

> <CNNaffinity_variance>
0.0246037822

$$$$
CCC(=C=O)Cc1c(O)c(C)cc(c1)C2=CC(=CC2)NCOO
                    3D
 Schrodinger Suite 2021-1.
 26 27  0  0  1  0            999 V2000
  -22.9061   21.6495  -10.1935 C   0  0  0  0  0  0
  -24.1300   21.1064   -9.7835 C   0  0  0  0  0  0
  -24.6084   19.9107  -10.3397 C   0  0  0  0  0  0
  -25.9332   19.3684   -9.8775 C   0  0  0  0  0  0
  -22.1779   21.0066  -11.2031 C   0  0  0  0  0  0
  -22.6017   19.7685  -11.7273 C   0  0  0  0  0  0
  -24.1891   17.9545  -11.7442 O   0  0  0  0  0  0
  -23.8117   19.2097  -11.2756 C   0  0  0  0  0  0
  -25.0399   17.4973  -11.4509 H   0  0  0  0  0  0
  -22.3270   22.8040   -9.4700 C   0  0  0  0  0  0
  -21.3496   24.1244   -7.8303 C   0  0  0  0  0  0
  -21.2431   24.7249   -9.0068 C   0  0  0  0  0  0
  -21.8512   23.9063  -10.0348 C   0  0  0  0  0  0
  -22.0580   22.8202   -7.9968 C   0  0  0  0  0  0
  -20.5803   25.9703   -9.2622 N   0  0  0  0  0  0
  -20.5012   26.2929  -10.2511 H   0  0  0  0  0  0
  -19.9310   26.7656   -8.2228 C   0  0  0  0  0  0
  -21.6211   28.1202   -8.4912 O   0  0  0  0  0  0
  -20.8778   27.5589   -7.5540 O   0  0  0  0  0  0
  -22.4911   27.6463   -8.4456 H   0  0  0  0  0  0
  -21.7375   19.0738  -12.7551 C   0  0  0  0  0  0
  -21.0162   16.8207  -12.2220 C   0  0  0  0  0  0
  -20.6998   18.0868  -12.2778 C   0  0  0  0  0  0
  -21.2895   15.6168  -12.2104 O   0  0  0  0  0  0
  -18.3812   17.5042  -13.1954 C   0  0  0  0  0  0
  -19.2245   18.4655  -12.3592 C   0  0  0  0  0  0
  1  2  2  0  0  0
  1 10  1  0  0  0
  1  5  1  0  0  0
  2  3  1  0  0  0
  3  4  1  0  0  0
  3  8  2  0  0  0
  5  6  2  0  0  0
  6 21  1  0  0  0
  6  8  1  0  0  0
  7  8  1  0  0  0
  7  9  1  0  0  0
 10 13  2  0  0  0
 10 14  1  0  0  0
 11 12  2  0  0  0
 11 14  1  0  0  0
 12 13  1  0  0  0
 12 15  1  0  0  0
 15 17  1  0  0  0
 15 16  1  0  0  0
 17 19  1  0  0  0
 18 19  1  0  0  0
 18 20  1  0  0  0
 21 23  1  0  0  0
 22 23  2  0  0  0
 22 24  2  0  0  0
 23 26  1  0  0  0
 25 26  1  0  0  0
M  END
> <s_m_entry_id>
695

> <s_m_entry_name>
myco-prior-var1-part2_12_lig_gen_fit_add_gna.sdf.8

> <s_m_Source_Path>
C:\Users\maila\Downloads\mgr\myco-analysis

> <s_m_Source_File>
myco-10-prior-wzakresie.mae

> <i_m_Source_File_Index>
2

> <s_user_SMILES>
CCC(=C=O)Cc1c(O)c(C)cc(c1)C2=CC(=CC2)NCOO

> <minimizedAffinity>
-8.4154

> <minimizedRMSD>
0.63771

> <CNNscore>
0.7070577741

> <CNNaffinity>
6.0472807884

> <CNN_VS>
4.2757768631

> <CNNaffinity_variance>
0.210477978

$$$$
[H]\N=C\C(=C1)C=CC=C(C[C@H](C2)O)C1[C@@H]([C@H]23)N=C(NC)[C@H]3CO
                    3D
 Schrodinger Suite 2021-1.
 26 28  0  0  1  0            999 V2000
  -20.7890  -19.1089   12.2120 C   0  0  0  0  0  0
  -21.6877  -16.3996   12.7534 C   0  0  0  0  0  0
  -19.8384  -18.2271   12.4635 C   0  0  0  0  0  0
  -20.2198  -16.7706   12.7756 C   0  0  0  0  0  0
  -24.8037  -18.9381    9.3769 O   0  0  0  0  0  0
  -23.0730  -22.6708    9.9948 C   0  0  2  0  0  0
  -24.8890  -20.9418   10.7485 C   0  0  0  0  0  0
  -22.5814  -17.2790   12.4166 C   0  0  0  0  0  0
  -22.1644  -19.5600   11.9352 C   0  0  3  0  0  0
  -21.6071  -22.5449   10.1010 C   0  0  0  0  0  0
  -22.4117  -21.0040   11.5460 C   0  0  1  0  0  0
  -24.6163  -18.5917   11.7647 C   0  0  0  0  0  0
  -23.1129  -18.5592   12.0084 C   0  0  0  0  0  0
  -23.4251  -21.2373   10.4309 C   0  0  1  0  0  0
  -25.1984  -19.4420   10.6296 C   0  0  1  0  0  0
  -21.2227  -21.6605   10.9762 N   0  0  0  0  0  0
  -25.3097  -18.0969    9.2267 H   0  0  0  0  0  0
  -17.6867  -17.5077   11.7072 N   0  0  0  0  0  0
  -18.4470  -18.4865   12.0834 C   0  0  0  0  0  0
  -16.7190  -17.6588   11.3558 H   0  0  0  0  0  0
  -21.0886  -23.8180    7.9890 C   0  0  0  0  0  0
  -20.7227  -23.3540    9.3217 N   0  0  0  0  0  0
  -19.9687  -23.8734    9.8250 H   0  0  0  0  0  0
  -23.5647  -23.8261   10.9235 C   0  0  0  0  0  0
  -22.5235  -24.6381   11.3992 O   0  0  0  0  0  0
  -22.9530  -25.3724   11.9106 H   0  0  0  0  0  0
  1  3  2  0  0  0
  1  9  1  0  0  0
  2  4  2  0  0  0
  2  8  1  0  0  0
  3  4  1  0  0  0
  3 19  1  0  0  0
  5 15  1  0  0  0
  5 17  1  0  0  0
  6 24  1  0  0  0
  6 10  1  0  0  0
  6 14  1  0  0  0
  7 14  1  0  0  0
  7 15  1  0  0  0
  8 13  2  0  0  0
  9 11  1  0  0  0
  9 13  1  0  0  0
 10 22  1  0  0  0
 10 16  2  0  0  0
 11 14  1  0  0  0
 11 16  1  0  0  0
 12 13  1  0  0  0
 12 15  1  0  0  0
 18 19  2  0  0  0
 18 20  1  0  0  0
 21 22  1  0  0  0
 22 23  1  0  0  0
 24 25  1  0  0  0
 25 26  1  0  0  0
M  END
> <s_m_entry_id>
696

> <s_m_entry_name>
myco-prior-var1-part2_17_lig_gen_fit_add_gna.sdf.6

> <s_m_Source_Path>
C:\Users\maila\Downloads\mgr\myco-analysis

> <s_m_Source_File>
myco-10-prior-wzakresie.mae

> <i_m_Source_File_Index>
3

> <s_user_SMILES>
[H]\N=C\C(=C1)C=CC=C(C[C@H](C2)O)C1[C@@H]([C@H]23)N=C(NC)[C@H]3CO

> <minimizedAffinity>
-8.61162

> <minimizedRMSD>
1.05633

> <CNNscore>
0.8094921708

> <CNNaffinity>
6.2742242813

> <CNN_VS>
5.0789356232

> <CNNaffinity_variance>
0.0779420286

$$$$
CC(N)=C=C1[C@H]2C3([C@@]124)[C@]5(OO3)[C@H]([C@H]4C)[C@@H]5[C@@]6(C78CC8)[C@@]9(C167)C12[C@H](C2)C9
                    3D
 Schrodinger Suite 2021-1.
 27 37  0  0  1  0            999 V2000
  -23.2302  -22.1068   11.1520 C   0  0  1  0  0  0
  -24.3532  -22.5723   10.2545 C   0  0  2  0  0  0
  -23.7796  -19.7925   11.8343 C   0  0  2  0  0  0
  -21.9439  -22.8734   10.8561 C   0  0  0  0  0  0
  -20.0179  -18.6573   12.3569 C   0  0  0  0  0  0
  -24.4780  -20.0082   10.4707 C   0  0  3  0  0  0
  -22.2678  -19.8915   11.9066 C   0  0  0  0  0  0
  -25.7924  -20.0005   11.0482 O   0  0  0  0  0  0
  -19.9657  -17.1808   12.1434 C   0  0  0  0  0  0
  -24.6169  -22.1390    8.7642 C   0  0  1  0  0  0
  -23.1203  -20.6085   10.8965 C   0  0  2  0  0  0
  -21.1371  -19.2985   12.1599 C   0  0  0  0  0  0
  -26.2290  -21.1167   10.4499 O   0  0  0  0  0  0
  -25.0114  -21.2670    9.8990 C   0  0  1  0  0  0
  -18.8170  -19.3731   12.6466 N   0  0  0  0  0  0
  -18.8020  -20.4155   12.6554 H   0  0  0  0  0  0
  -17.9222  -18.8591   12.8068 H   0  0  0  0  0  0
  -24.7074  -20.0080    5.6898 C   0  0  0  0  0  0
  -23.5545  -21.8759    6.5352 C   0  0  3  0  0  0
  -22.5232  -23.9103    7.3281 C   0  0  0  0  0  0
  -22.4669  -22.4233    7.4231 C   0  0  2  0  0  0
  -22.5714  -23.1744    4.8168 C   0  0  0  0  0  0
  -23.7299  -20.3742    6.8359 C   0  0  0  0  0  0
  -25.1295  -19.7677    7.0884 C   0  0  0  0  0  0
  -23.5050  -21.4768    7.9449 C   0  0  2  0  0  0
  -22.1663  -22.2332    5.9517 C   0  0  3  0  0  0
  -21.8562  -23.7737    5.9684 C   0  0  1  0  0  0
  1  2  1  0  0  0
  1  4  1  0  0  0
  1 11  1  0  0  0
  2 10  1  0  0  0
  2 14  1  0  0  0
  3  6  1  0  0  0
  3  7  1  0  0  0
  3 11  1  0  0  0
  5  9  1  0  0  0
  5 12  2  0  0  0
  5 15  1  0  0  0
  6  8  1  0  0  0
  6 11  1  0  0  0
  6 14  1  0  0  0
  7 11  1  0  0  0
  7 12  2  0  0  0
  8 13  1  0  0  0
 10 25  1  0  0  0
 10 14  1  0  0  0
 13 14  1  0  0  0
 15 16  1  0  0  0
 15 17  1  0  0  0
 18 23  1  0  0  0
 18 24  1  0  0  0
 19 21  1  0  0  0
 19 23  1  0  0  0
 19 25  1  0  0  0
 19 26  1  0  0  0
 20 21  1  0  0  0
 20 27  1  0  0  0
 21 25  1  0  0  0
 21 26  1  0  0  0
 22 26  1  0  0  0
 22 27  1  0  0  0
 23 24  1  0  0  0
 23 25  1  0  0  0
 26 27  1  0  0  0
M  END
> <s_m_entry_id>
697

> <s_m_entry_name>
myco-prior-var1-part2_22_lig_gen_fit_add_gna.sdf.8

> <s_m_Source_Path>
C:\Users\maila\Downloads\mgr\myco-analysis

> <s_m_Source_File>
myco-10-prior-wzakresie.mae

> <i_m_Source_File_Index>
4

> <s_user_SMILES>
CC(N)=C=C1[C@H]2C3([C@@]124)[C@]5(OO3)[C@H]([C@H]4C)[C@@H]5[C@@]6(C78CC8)[C@@]9(C167)C12[C@H](C2)C9

> <minimizedAffinity>
-9.86419

> <minimizedRMSD>
0.9323

> <CNNscore>
0.2895494699

> <CNNaffinity>
6.1530661583

> <CNN_VS>
1.7816170454

> <CNNaffinity_variance>
0.113835454

$$$$
C1[C@@H]2[C@@H]3[C@]4(C123)C[C@H](COC4)C[C@@]5([C@H]6[C@@H](C7)[C@H]6N)[C@H]7[C@H]([C@]589)[C@@H]8C[C@H]1[C@H](C1)C9
                    3D
 Schrodinger Suite 2021-1.
 28 37  0  0  1  0            999 V2000
  -20.1391  -22.2024    6.4189 C   0  0  1  0  0  0
  -22.4739  -20.9112    6.2090 C   0  0  2  0  0  0
  -20.9384  -25.0518    5.1458 C   0  0  0  0  0  0
  -23.2209  -19.4758    4.2347 C   0  0  1  0  0  0
  -24.0067  -20.6874    3.8318 C   0  0  1  0  0  0
  -19.2297  -23.4353    6.2009 C   0  0  0  0  0  0
  -20.6211  -21.5718    5.2253 C   0  0  1  0  0  0
  -21.9039  -23.4240    7.0496 C   0  0  0  0  0  0
  -23.3273  -21.8341    3.2233 N   0  0  0  0  0  0
  -21.6719  -22.2734    6.0728 C   0  0  1  0  0  0
  -23.6972  -20.4077    5.3368 C   0  0  1  0  0  0
  -19.9384  -24.7972    6.2592 C   0  0  1  0  0  0
  -21.4305  -24.8107    6.5765 C   0  0  2  0  0  0
  -21.2994  -20.2332    5.4851 C   0  0  1  0  0  0
  -21.7553  -19.5221    4.2137 C   0  0  0  0  0  0
  -22.5930  -21.5616    2.5388 H   0  0  0  0  0  0
  -23.0095  -22.5396    3.9184 H   0  0  0  0  0  0
  -22.6646  -20.4646    7.6928 C   0  0  0  0  0  0
  -21.9332  -20.2046   12.6767 C   0  0  0  0  0  0
  -23.9888  -19.9525   11.0150 C   0  0  1  0  0  0
  -23.9388  -20.6934    8.5505 C   0  0  2  0  0  0
  -24.2633  -19.5488    9.5536 C   0  0  0  0  0  0
  -24.4751  -21.3585   11.4171 C   0  0  0  0  0  0
  -24.0504  -22.0448    9.2681 C   0  0  0  0  0  0
  -22.5473  -18.8092   12.7892 C   0  0  1  0  0  0
  -22.6248  -19.5792   11.4961 C   0  0  3  0  0  0
  -25.0192  -22.0151   10.2977 O   0  0  0  0  0  0
  -23.8668  -18.8018   12.0036 C   0  0  1  0  0  0
  1  6  1  0  0  0
  1  7  1  0  0  0
  1 10  1  0  0  0
  2 18  1  0  0  0
  2 10  1  0  0  0
  2 11  1  0  0  0
  2 14  1  0  0  0
  3 12  1  0  0  0
  3 13  1  0  0  0
  4  5  1  0  0  0
  4 11  1  0  0  0
  4 15  1  0  0  0
  5  9  1  0  0  0
  5 11  1  0  0  0
  6 12  1  0  0  0
  7 10  1  0  0  0
  7 14  1  0  0  0
  8 10  1  0  0  0
  8 13  1  0  0  0
  9 16  1  0  0  0
  9 17  1  0  0  0
 12 13  1  0  0  0
 14 15  1  0  0  0
 18 21  1  0  0  0
 19 25  1  0  0  0
 19 26  1  0  0  0
 20 22  1  0  0  0
 20 23  1  0  0  0
 20 26  1  0  0  0
 20 28  1  0  0  0
 21 22  1  0  0  0
 21 24  1  0  0  0
 23 27  1  0  0  0
 24 27  1  0  0  0
 25 26  1  0  0  0
 25 28  1  0  0  0
 26 28  1  0  0  0
M  END
> <s_m_entry_id>
698

> <s_m_entry_name>
myco-prior-var1-part2_28_lig_gen_fit_add_gna.sdf.5

> <s_m_Source_Path>
C:\Users\maila\Downloads\mgr\myco-analysis

> <s_m_Source_File>
myco-10-prior-wzakresie.mae

> <i_m_Source_File_Index>
5

> <s_user_SMILES>
C1[C@@H]2[C@@H]3[C@]4(C123)C[C@H](COC4)C[C@@]5([C@H]6[C@@H](C7)[C@H]6N)[C@H]7[C@H]([C@]589)[C@@H]8C[C@H]1[C@H](C1)C9

> <minimizedAffinity>
-8.33155

> <minimizedRMSD>
0.53664

> <CNNscore>
0.3990911543

> <CNNaffinity>
6.4926195145

> <CNN_VS>
2.591146946

> <CNNaffinity_variance>
0.09423659

$$$$
CC(C)C\C=C(C(C)CCC)\C=C=C1C=C(C)c(c12)ccc(c2)-c3ccccc3
                    3D
 Schrodinger Suite 2021-1.
 29 31  0  0  1  0            999 V2000
  -22.9766   22.2865  -10.5343 C   0  0  0  0  0  0
  -22.9352   21.0263  -11.2300 C   0  0  0  0  0  0
  -23.1849   18.3686  -11.8759 C   0  0  0  0  0  0
  -24.1704   18.9767  -11.1143 C   0  0  0  0  0  0
  -22.0367   20.5070  -12.1442 C   0  0  0  0  0  0
  -22.3149   23.3382  -10.8345 C   0  0  0  0  0  0
  -24.2337   22.3297   -9.8327 C   0  0  0  0  0  0
  -26.2590   21.0628  -10.1307 C   0  0  0  0  0  0
  -23.9817   20.3013  -10.7688 C   0  0  0  0  0  0
  -21.6962   24.4138  -11.1383 C   0  0  0  0  0  0
  -24.8231   21.1617   -9.9800 C   0  0  0  0  0  0
  -22.0742   19.1104  -12.3771 C   0  0  0  0  0  0
  -20.8520   18.3942  -12.8224 C   0  0  0  0  0  0
  -18.4402   18.1618  -12.6554 C   0  0  0  0  0  0
  -19.7974   16.2596  -13.2147 C   0  0  0  0  0  0
  -20.9294   17.0439  -13.1940 C   0  0  0  0  0  0
  -18.5429   16.8233  -12.9402 C   0  0  0  0  0  0
  -19.5700   18.9521  -12.6316 C   0  0  0  0  0  0
  -21.1858   25.4149  -10.1674 C   0  0  0  0  0  0
  -21.3267   26.8118  -10.6969 C   0  0  0  0  0  0
  -20.7402   25.1818   -8.8875 C   0  0  3  0  0  0
  -21.6869   24.7142   -7.8019 C   0  0  0  0  0  0
  -19.2746   25.4706   -8.5555 C   0  0  0  0  0  0
  -17.0577   24.7923   -7.5376 C   0  0  0  0  0  0
  -18.4709   24.3311   -7.9039 C   0  0  0  0  0  0
  -22.6045   27.4733  -10.1555 C   0  0  0  0  0  0
  -22.5367   29.3788  -11.8623 C   0  0  0  0  0  0
  -24.5377   29.1981  -10.4103 C   0  0  0  0  0  0
  -23.4461   28.3830  -11.1061 C   0  0  0  0  0  0
  1  2  1  0  0  0
  1  6  2  0  0  0
  1  7  1  0  0  0
  2  5  2  0  0  0
  2  9  1  0  0  0
  3  4  1  0  0  0
  3 12  2  0  0  0
  4  9  2  0  0  0
  5 12  1  0  0  0
  6 10  2  0  0  0
  7 11  2  0  0  0
  8 11  1  0  0  0
  9 11  1  0  0  0
 10 19  1  0  0  0
 12 13  1  0  0  0
 13 16  2  0  0  0
 13 18  1  0  0  0
 14 17  1  0  0  0
 14 18  2  0  0  0
 15 16  1  0  0  0
 15 17  2  0  0  0
 19 21  1  0  0  0
 19 20  2  0  0  0
 20 26  1  0  0  0
 21 23  1  0  0  0
 21 22  1  0  0  0
 23 25  1  0  0  0
 24 25  1  0  0  0
 26 29  1  0  0  0
 27 29  1  0  0  0
 28 29  1  0  0  0
M  END
> <s_m_entry_id>
699

> <s_m_entry_name>
10-myco-8-vol2-rest4_16_lig_gen_fit_add_gna.sdf.1

> <s_m_Source_Path>
C:\Users\maila\Downloads\mgr\myco-analysis

> <s_m_Source_File>
myco-10-var8-wzakresie.mae

> <i_m_Source_File_Index>
1

> <s_user_SMILES>
CC(C)C\C=C(C(C)CCC)\C=C=C1C=C(C)c(c12)ccc(c2)-c3ccccc3

> <minimizedAffinity>
-8.13388

> <minimizedRMSD>
1.47685

> <CNNscore>
0.5494565368

> <CNNaffinity>
6.8904685974

> <CNN_VS>
3.7860131264

> <CNNaffinity_variance>
0.1489997804

$$$$
CC#CCCc(cc(C)c1)c(C2)c1C(C=23)C(=C3)CC4=C(C)C=C4C#CCC
                    3D
 Schrodinger Suite 2021-1.
 27 30  0  0  1  0            999 V2000
  -21.9254   21.6920   -6.1505 C   0  0  0  0  0  0
  -22.4749   23.2174   -9.4024 C   0  0  3  0  0  0
  -22.1814   20.4582   -5.3534 C   0  0  0  0  0  0
  -21.3991   24.0001   -7.6505 C   0  0  0  0  0  0
  -22.4673   21.7922   -7.4384 C   0  0  0  0  0  0
  -22.3669   24.5128  -11.0011 C   0  0  0  0  0  0
  -21.9150   24.5022   -9.7178 C   0  0  0  0  0  0
  -22.9726   23.2041  -10.7486 C   0  0  0  0  0  0
  -20.8732   23.9230   -6.3457 C   0  0  0  0  0  0
  -21.1206   22.7325   -5.6198 C   0  0  0  0  0  0
  -22.1717   22.9256   -8.1672 C   0  0  0  0  0  0
  -21.2309   25.0085   -8.5555 C   0  0  0  0  0  0
  -19.9662   25.0141   -5.7966 C   0  0  0  0  0  0
  -19.5478   24.8060   -4.3293 C   0  0  0  0  0  0
  -21.0203   27.8534   -1.9499 C   0  0  0  0  0  0
  -20.0499   25.8961   -3.4832 C   0  0  0  0  0  0
  -20.4831   26.7821   -2.7893 C   0  0  0  0  0  0
  -22.3535   22.0858  -11.6118 C   0  0  0  0  0  0
  -25.4038   20.7744  -10.4351 C   0  0  0  0  0  0
  -23.0192   20.7507  -11.5027 C   0  0  0  0  0  0
  -24.1832   20.2495  -11.1008 C   0  0  0  0  0  0
  -23.7943   18.9403  -11.6163 C   0  0  0  0  0  0
  -22.6101   19.4250  -11.9498 C   0  0  0  0  0  0
  -20.2719   18.4514  -12.6754 C   0  0  0  0  0  0
  -21.3661   18.8663  -12.3929 C   0  0  0  0  0  0
  -18.9089   17.9858  -12.9451 C   0  0  0  0  0  0
  -18.7680   16.5192  -12.5859 C   0  0  0  0  0  0
  1  3  1  0  0  0
  1  5  2  0  0  0
  1 10  1  0  0  0
  2  7  1  0  0  0
  2  8  1  0  0  0
  2 11  1  0  0  0
  4  9  1  0  0  0
  4 11  2  0  0  0
  4 12  1  0  0  0
  5 11  1  0  0  0
  6  7  1  0  0  0
  6  8  2  0  0  0
  7 12  2  0  0  0
  8 18  1  0  0  0
  9 13  1  0  0  0
  9 10  2  0  0  0
 13 14  1  0  0  0
 14 16  1  0  0  0
 15 17  1  0  0  0
 16 17  3  0  0  0
 18 20  1  0  0  0
 19 21  1  0  0  0
 20 21  2  0  0  0
 20 23  1  0  0  0
 21 22  1  0  0  0
 22 23  2  0  0  0
 23 25  1  0  0  0
 24 26  1  0  0  0
 24 25  3  0  0  0
 26 27  1  0  0  0
M  END
> <s_m_entry_id>
700

> <s_m_entry_name>
10-myco-8-vol2-rest4_16_lig_gen_fit_add_gna.sdf.7

> <s_m_Source_Path>
C:\Users\maila\Downloads\mgr\myco-analysis

> <s_m_Source_File>
myco-10-var8-wzakresie.mae

> <i_m_Source_File_Index>
2

> <s_user_SMILES>
CC#CCCc(cc(C)c1)c(C2)c1C(C=23)C(=C3)CC4=C(C)C=C4C#CCC

> <minimizedAffinity>
-8.39257

> <minimizedRMSD>
2.3498

> <CNNscore>
0.4553372562

> <CNNaffinity>
6.420984745

> <CNN_VS>
2.9237136841

> <CNNaffinity_variance>
0.0147230607

$$$$
c12ccccc3c1c3c(c4CC5)c2c(ccc6)cc6c4C=C(C=5[C@H]([C@]789)N9C7)CC[C@@H]8C1=CC=C1
                    3D
 Schrodinger Suite 2021-1.
 34 43  0  0  1  0            999 V2000
  -23.1780  -19.2072   12.3860 C   0  0  0  0  0  0
  -24.7622  -20.5766   10.7520 C   0  0  0  0  0  0
  -21.3570  -20.6713   12.3816 C   0  0  0  0  0  0
  -22.0592  -22.2679   10.4665 C   0  0  0  0  0  0
  -21.9976  -19.6478   13.0947 C   0  0  0  0  0  0
  -22.2665  -16.8473   12.4430 C   0  0  0  0  0  0
  -24.9666  -21.9451   10.5831 C   0  0  0  0  0  0
  -22.9534  -23.0185    9.7889 C   0  0  0  0  0  0
  -20.9145  -16.9314   12.2876 C   0  0  0  0  0  0
  -21.5723  -24.7828    8.4832 C   0  0  0  0  0  0
  -18.3044  -24.8751    5.4372 C   0  0  0  0  0  0
  -20.0970  -22.8990    9.0238 C   0  0  0  0  0  0
  -24.8135  -20.3703    8.3528 C   0  0  0  0  0  0
  -22.3886  -21.1075   11.3919 C   0  0  0  0  0  0
  -20.6853  -23.8534    8.0715 C   0  0  0  0  0  0
  -20.3673  -26.2546    6.0653 C   0  0  1  0  0  0
  -24.3355  -21.6894    8.2939 C   0  0  0  0  0  0
  -20.8379  -19.2487   12.2333 C   0  0  0  0  0  0
  -20.0506  -23.7837    6.6897 C   0  0  1  0  0  0
  -23.3265  -17.8963   12.1231 C   0  0  0  0  0  0
  -20.1547  -26.7601    7.5035 C   0  0  0  0  0  0
  -20.1913  -18.1618   11.9313 C   0  0  0  0  0  0
  -22.6314  -24.4730    9.5196 C   0  0  0  0  0  0
  -24.2762  -22.4492    9.4781 C   0  0  0  0  0  0
  -20.6230  -22.4128   10.1587 C   0  0  0  0  0  0
  -18.7247  -24.4268    6.7681 N   0  0  1  0  0  0
  -23.5009  -20.3246   11.4841 C   0  0  0  0  0  0
  -21.2654  -26.2732    8.4303 C   0  0  0  0  0  0
  -19.7348  -24.8760    5.7563 C   0  0  2  0  0  0
  -24.9924  -19.7829    9.6156 C   0  0  0  0  0  0
  -20.0199  -27.3163    5.0482 C   0  0  0  0  0  0
  -19.3748  -28.4746    5.1174 C   0  0  0  0  0  0
  -19.6517  -28.7210    3.7091 C   0  0  0  0  0  0
  -20.3137  -27.5782    3.6382 C   0  0  0  0  0  0
  1  5  1  0  0  0
  1 20  2  0  0  0
  1 27  1  0  0  0
  2  7  2  0  0  0
  2 27  1  0  0  0
  2 30  1  0  0  0
  3  5  2  0  0  0
  3 14  1  0  0  0
  3 18  1  0  0  0
  4  8  2  0  0  0
  4 14  1  0  0  0
  4 25  1  0  0  0
  5 18  1  0  0  0
  6  9  2  0  0  0
  6 20  1  0  0  0
  7 24  1  0  0  0
  8 23  1  0  0  0
  8 24  1  0  0  0
  9 22  1  0  0  0
 10 15  1  0  0  0
 10 23  2  0  0  0
 10 28  1  0  0  0
 11 26  1  0  0  0
 11 29  1  0  0  0
 12 15  2  0  0  0
 12 25  1  0  0  0
 13 17  1  0  0  0
 13 30  2  0  0  0
 14 27  2  0  0  0
 15 19  1  0  0  0
 16 31  1  0  0  0
 16 21  1  0  0  0
 16 29  1  0  0  0
 17 24  2  0  0  0
 18 22  2  0  0  0
 19 26  1  0  0  0
 19 29  1  0  0  0
 21 28  1  0  0  0
 26 29  1  0  0  0
 31 32  2  0  0  0
 31 34  1  0  0  0
 32 33  1  0  0  0
 33 34  2  0  0  0
M  END
> <s_m_entry_id>
701

> <s_m_entry_name>
10-myco-8-vol2-rest4_20_lig_gen_fit_add_gna.sdf.8

> <s_m_Source_Path>
C:\Users\maila\Downloads\mgr\myco-analysis

> <s_m_Source_File>
myco-10-var8-wzakresie.mae

> <i_m_Source_File_Index>
3

> <s_user_SMILES>
c12ccccc3c1c3c(c4CC5)c2c(ccc6)cc6c4C=C(C=5[C@H]([C@]789)N9C7)CC[C@@H]8C1=CC=C1

> <minimizedAffinity>
-9.8871

> <minimizedRMSD>
0.6534

> <CNNscore>
0.4274690747

> <CNNaffinity>
6.8779296875

> <CNN_VS>
2.9401023388

> <CNNaffinity_variance>
0.1368493736

$$$$
CCC=C=C=C=CC1=C([C@@H]1C)CC[C@H](C)CC=C=C2C=C[C@@H]2C(C3)=CC=C3CO
                    3D
 Schrodinger Suite 2021-1.
 30 32  0  0  1  0            999 V2000
  -21.2873  -24.9269    8.3927 C   0  0  1  0  0  0
  -21.4907  -24.8610    6.8712 C   0  0  0  0  0  0
  -19.8469  -24.4944    8.7830 C   0  0  0  0  0  0
  -18.8343  -25.6402    8.5843 C   0  0  0  0  0  0
  -16.4828  -25.0264    7.0721 C   0  0  0  0  0  0
  -17.8344  -25.2964    7.5304 C   0  0  0  0  0  0
  -17.5756  -24.8978    6.2217 C   0  0  2  0  0  0
  -17.6736  -26.0041    5.1739 C   0  0  0  0  0  0
  -14.5672  -23.6689    7.1590 C   0  0  0  0  0  0
  -13.9498  -21.1950    6.9406 C   0  0  0  0  0  0
  -13.7267  -19.9166    6.8095 C   0  0  0  0  0  0
  -15.0423  -24.8777    7.2475 C   0  0  0  0  0  0
  -14.2165  -22.4411    7.0637 C   0  0  0  0  0  0
  -12.3813  -19.3373    7.0935 C   0  0  0  0  0  0
  -12.5061  -17.8495    7.3685 C   0  0  0  0  0  0
  -22.3925  -24.1402    9.1398 C   0  0  0  0  0  0
  -23.8121  -20.9834   10.1749 C   0  0  0  0  0  0
  -23.9109  -20.6556   11.5685 C   0  0  2  0  0  0
  -24.9790  -19.6937   11.3239 C   0  0  0  0  0  0
  -23.1944  -21.8571    9.4240 C   0  0  0  0  0  0
  -22.5732  -22.7255    8.6699 C   0  0  0  0  0  0
  -24.9004  -19.9721    9.9855 C   0  0  0  0  0  0
  -22.6595  -20.0244   12.1377 C   0  0  0  0  0  0
  -21.5409  -20.7018   12.3409 C   0  0  0  0  0  0
  -20.9431  -18.5377   12.6146 C   0  0  0  0  0  0
  -22.4225  -18.5606   12.3869 C   0  0  0  0  0  0
  -20.4613  -19.7659   12.6149 C   0  0  0  0  0  0
  -20.0879  -17.3209   12.8027 C   0  0  0  0  0  0
  -20.8329  -16.1622   12.5688 O   0  0  0  0  0  0
  -20.2143  -15.4006   12.7157 H   0  0  0  0  0  0
  1  3  1  0  0  0
  1 16  1  0  0  0
  1  2  1  0  0  0
  3  4  1  0  0  0
  4  6  1  0  0  0
  5  6  2  0  0  0
  5  7  1  0  0  0
  5 12  1  0  0  0
  6  7  1  0  0  0
  7  8  1  0  0  0
  9 12  2  0  0  0
  9 13  2  0  0  0
 10 11  2  0  0  0
 10 13  2  0  0  0
 11 14  1  0  0  0
 14 15  1  0  0  0
 16 21  1  0  0  0
 17 18  1  0  0  0
 17 20  2  0  0  0
 17 22  1  0  0  0
 18 23  1  0  0  0
 18 19  1  0  0  0
 19 22  2  0  0  0
 20 21  2  0  0  0
 23 24  2  0  0  0
 23 26  1  0  0  0
 24 27  1  0  0  0
 25 28  1  0  0  0
 25 26  1  0  0  0
 25 27  2  0  0  0
 28 29  1  0  0  0
 29 30  1  0  0  0
M  END
> <s_m_entry_id>
702

> <s_m_entry_name>
10-myco-8-vol2-rest4_21_lig_gen_fit_add_gna.sdf.9

> <s_m_Source_Path>
C:\Users\maila\Downloads\mgr\myco-analysis

> <s_m_Source_File>
myco-10-var8-wzakresie.mae

> <i_m_Source_File_Index>
4

> <s_user_SMILES>
CCC=C=C=C=CC1=C([C@@H]1C)CC[C@H](C)CC=C=C2C=C[C@@H]2C(C3)=CC=C3CO

> <minimizedAffinity>
-8.89075

> <minimizedRMSD>
1.3698

> <CNNscore>
0.2959084511

> <CNNaffinity>
6.2547235489

> <CNN_VS>
1.8508255482

> <CNNaffinity_variance>
0.190116927

$$$$
CCC=C=C/C(N)=C/C/C=C/CC[C@@H](C1=C=CO)[C@@H]1OC(C)C
                    3D
 Schrodinger Suite 2021-1.
 26 26  0  0  1  0            999 V2000
  -26.3623   18.1028   -8.6162 C   0  0  0  0  0  0
  -25.2488   20.1423   -9.4724 C   0  0  0  0  0  0
  -25.1722   19.0188   -8.7515 C   0  0  0  0  0  0
  -24.8228   20.1565  -10.9146 C   0  0  0  0  0  0
  -23.4350   19.6220  -11.0704 C   0  0  0  0  0  0
  -22.8078   19.6716  -12.2396 C   0  0  0  0  0  0
  -22.3322   20.9320  -12.6733 N   0  0  0  0  0  0
  -21.8503   20.9712  -13.5924 H   0  0  0  0  0  0
  -21.8472   21.0028  -13.5917 H   0  0  0  0  0  0
  -20.8172   18.5743  -12.8490 C   0  0  0  0  0  0
  -22.1169   18.4908  -12.7729 C   0  0  0  0  0  0
  -19.5329   18.8094  -12.8003 C   0  0  0  0  0  0
  -19.0833   16.8698  -14.3117 C   0  0  0  0  0  0
  -18.5109   18.0370  -13.5603 C   0  0  0  0  0  0
  -26.7614   17.9137   -7.1627 C   0  0  0  0  0  0
  -25.3481   17.1477   -5.1937 C   0  0  0  0  0  0
  -23.8559   18.9369   -4.0245 C   0  0  0  0  0  0
  -24.5951   18.0236   -4.5869 C   0  0  0  0  0  0
  -26.6071   16.2841   -5.2259 C   0  0  2  0  0  0
  -22.6204   18.6071   -3.4816 O   0  0  0  0  0  0
  -26.0751   16.7296   -6.4734 C   0  0  1  0  0  0
  -21.8894   19.3064   -3.4213 H   0  0  0  0  0  0
  -27.7388   16.9928   -4.7566 O   0  0  0  0  0  0
  -28.7637   16.1184   -4.3035 C   0  0  0  0  0  0
  -29.2451   15.1370   -5.3770 C   0  0  0  0  0  0
  -28.3799   15.4153   -3.0230 C   0  0  0  0  0  0
  1 15  1  0  0  0
  1  3  1  0  0  0
  2  4  1  0  0  0
  2  3  2  0  0  0
  4  5  1  0  0  0
  5  6  2  0  0  0
  6 11  1  0  0  0
  6  7  1  0  0  0
  7  8  1  0  0  0
  7  9  1  0  0  0
 10 11  2  0  0  0
 10 12  2  0  0  0
 12 14  1  0  0  0
 13 14  1  0  0  0
 15 21  1  0  0  0
 16 18  2  0  0  0
 16 19  1  0  0  0
 16 21  1  0  0  0
 17 18  2  0  0  0
 17 20  1  0  0  0
 19 23  1  0  0  0
 19 21  1  0  0  0
 20 22  1  0  0  0
 23 24  1  0  0  0
 24 25  1  0  0  0
 24 26  1  0  0  0
M  END
> <s_m_entry_id>
703

> <s_m_entry_name>
10-myco-8-vol2-rest5_1_lig_gen_fit_add_gna.sdf.9

> <s_m_Source_Path>
C:\Users\maila\Downloads\mgr\myco-analysis

> <s_m_Source_File>
myco-10-var8-wzakresie.mae

> <i_m_Source_File_Index>
5

> <s_user_SMILES>
CCC=C=C/C(N)=C/C/C=C/CC[C@@H](C1=C=CO)[C@@H]1OC(C)C

> <minimizedAffinity>
-8.42825

> <minimizedRMSD>
0.66703

> <CNNscore>
0.4867699742

> <CNNaffinity>
6.1422891617

> <CNN_VS>
2.9898819923

> <CNNaffinity_variance>
0.2443904132

$$$$
C[C@@H](O)CCCCCCCc(ncc1)cc1CO
                    3D
 Schrodinger Suite 2021-1.
 20 20  0  0  1  0            999 V2000
    5.3155  -17.6984  -10.9775 C   0  0  0  0  0  0
    4.3506  -17.1603   -9.9099 C   0  0  0  0  0  0
    2.5282  -19.9691   -8.2168 C   0  0  0  0  0  0
    3.2295  -20.1473   -7.0373 C   0  0  0  0  0  0
    3.9781  -18.2112   -8.8962 C   0  0  0  0  0  0
    4.7386  -18.3906   -7.7336 C   0  0  0  0  0  0
    4.3334  -19.3397   -6.7828 C   0  0  0  0  0  0
    2.8929  -19.0030   -9.1048 N   0  0  0  0  0  0
    5.6855  -20.6923   -5.3991 O   0  0  0  0  0  0
    5.0334  -19.4668   -5.4793 C   0  0  0  0  0  0
    6.1322  -20.6944   -4.5127 H   0  0  0  0  0  0
    4.5794  -18.2043  -12.2334 C   0  0  0  0  0  0
    5.5599  -18.5379  -13.3707 C   0  0  0  0  0  0
    5.7878  -20.0535  -13.4979 C   0  0  0  0  0  0
    7.2153  -20.4471  -13.1062 C   0  0  0  0  0  0
    7.5546  -21.8729  -13.5664 C   0  0  0  0  0  0
    8.9567  -21.9711  -14.2080 C   0  0  2  0  0  0
    9.1224  -23.2288  -14.8129 O   0  0  0  0  0  0
   10.0860  -21.7257  -13.1948 C   0  0  0  0  0  0
    9.0555  -23.9156  -14.0985 H   0  0  0  0  0  0
  1  2  1  0  0  0
  1 12  1  0  0  0
  2  5  1  0  0  0
  3  4  2  0  0  0
  3  8  1  0  0  0
  4  7  1  0  0  0
  5  6  1  0  0  0
  5  8  2  0  0  0
  6  7  2  0  0  0
  7 10  1  0  0  0
  9 10  1  0  0  0
  9 11  1  0  0  0
 12 13  1  0  0  0
 13 14  1  0  0  0
 14 15  1  0  0  0
 15 16  1  0  0  0
 16 17  1  0  0  0
 17 18  1  0  0  0
 17 19  1  0  0  0
 18 20  1  0  0  0
M  END
> <s_m_entry_id>
704

> <s_m_entry_name>
10-myco-4_0_lig_gen_fit_add_gna.sdf.9

> <s_m_Source_Path>
C:\Users\maila\Downloads\mgr\myco-analysis

> <s_m_Source_File>
myco-10-var4-wzakresie.mae

> <i_m_Source_File_Index>
1

> <s_user_SMILES>
C[C@@H](O)CCCCCCCc(ncc1)cc1CO

> <minimizedAffinity>
-6.2558

> <minimizedRMSD>
1.16296

> <CNNscore>
0.899002254

> <CNNaffinity>
5.4765777588

> <CNN_VS>
4.9234557152

> <CNNaffinity_variance>
0.1096791849

$$$$
[nH]1cccc1C=C=C(C)CC2=CCC(=C2)CN(C[C@H]3C)[C@H]([C@H]34)[C@@H]4[C@]56[C@@H](C6)[C@H]5CC
                    3D
 Schrodinger Suite 2021-1.
 30 35  0  0  1  0            999 V2000
    3.5337  -19.1782  -13.7618 C   0  0  0  0  0  0
    5.4462  -18.3856  -12.7302 C   0  0  0  0  0  0
    3.1838  -18.4574  -12.7045 C   0  0  0  0  0  0
    4.3866  -17.9788  -12.0375 C   0  0  0  0  0  0
    5.0229  -19.2169  -13.8948 C   0  0  0  0  0  0
    4.3827  -17.0090  -10.8806 C   0  0  0  0  0  0
    5.4339  -18.0891   -7.5577 C   0  0  0  0  0  0
    6.9269  -16.6032  -10.4221 C   0  0  0  0  0  0
    5.5941  -17.1333   -9.9863 C   0  0  0  0  0  0
    5.4860  -17.6147   -8.7739 C   0  0  0  0  0  0
    4.4989  -19.1551   -7.1781 C   0  0  0  0  0  0
    3.3594  -19.5281   -7.8661 C   0  0  0  0  0  0
    2.8358  -20.6032   -7.1824 C   0  0  0  0  0  0
    4.6761  -19.9472   -6.1039 N   0  0  0  0  0  0
    3.6664  -20.8357   -6.1056 C   0  0  0  0  0  0
    5.4581  -19.9011   -5.4128 H   0  0  0  0  0  0
    2.5587  -19.8018  -14.7245 C   0  0  0  0  0  0
    1.8207  -22.1368  -15.0332 C   0  0  1  0  0  0
    0.6307  -21.8701  -15.9658 C   0  0  1  0  0  0
    3.7079  -21.3468  -16.2687 C   0  0  0  0  0  0
    3.6257  -23.1209  -18.0896 C   0  0  0  0  0  0
    1.7726  -22.7872  -16.4104 C   0  0  1  0  0  0
    2.9530  -21.1941  -15.0157 N   0  0  1  0  0  0
    2.8330  -22.1097  -17.2584 C   0  0  1  0  0  0
   -0.7686  -24.0231  -15.4022 C   0  0  0  0  0  0
   -1.8111  -22.0393  -16.5545 C   0  0  2  0  0  0
   -1.2889  -23.4608  -16.7143 C   0  0  1  0  0  0
   -0.7435  -22.5201  -15.5952 C   0  0  1  0  0  0
   -4.1850  -21.2607  -16.9054 C   0  0  0  0  0  0
   -3.2054  -21.8889  -15.9198 C   0  0  0  0  0  0
  1  3  2  0  0  0
  1  5  1  0  0  0
  1 17  1  0  0  0
  2  4  2  0  0  0
  2  5  1  0  0  0
  3  4  1  0  0  0
  4  6  1  0  0  0
  6  9  1  0  0  0
  7 11  1  0  0  0
  7 10  2  0  0  0
  8  9  1  0  0  0
  9 10  2  0  0  0
 11 12  2  0  0  0
 11 14  1  0  0  0
 12 13  1  0  0  0
 13 15  2  0  0  0
 14 15  1  0  0  0
 14 16  1  0  0  0
 17 23  1  0  0  0
 18 19  1  0  0  0
 18 22  1  0  0  0
 18 23  1  0  0  0
 19 22  1  0  0  0
 19 28  1  0  0  0
 20 23  1  0  0  0
 20 24  1  0  0  0
 21 24  1  0  0  0
 22 24  1  0  0  0
 25 27  1  0  0  0
 25 28  1  0  0  0
 26 30  1  0  0  0
 26 27  1  0  0  0
 26 28  1  0  0  0
 27 28  1  0  0  0
 29 30  1  0  0  0
M  END
> <s_m_entry_id>
705

> <s_m_entry_name>
10-myco-4_1_lig_gen_fit_add_gna.sdf.4

> <s_m_Source_Path>
C:\Users\maila\Downloads\mgr\myco-analysis

> <s_m_Source_File>
myco-10-var4-wzakresie.mae

> <i_m_Source_File_Index>
2

> <s_user_SMILES>
[nH]1cccc1C=C=C(C)CC2=CCC(=C2)CN(C[C@H]3C)[C@H]([C@H]34)[C@@H]4[C@]56[C@@H](C6)[C@H]5CC

> <minimizedAffinity>
-8.02919

> <minimizedRMSD>
0.64699

> <CNNscore>
0.513666451

> <CNNaffinity>
6.5170869827

> <CNN_VS>
3.3476090431

> <CNNaffinity_variance>
0.093430303

$$$$
C[C@@H]1C(C2)=C2[C@@H]([C@@]134)[C@H]3[C@H]([C@@H]4C)NCO[C@]5(N)c(c56)ccc=7c6=C(O)CC7
                    3D
 Schrodinger Suite 2021-1.
 30 36  0  0  1  0            999 V2000
    3.7722  -19.6923   -7.7243 C   0  0  0  0  0  0
    4.2500  -19.7533   -6.4161 C   0  0  0  0  0  0
    2.7063  -20.4096   -7.8991 C   0  0  0  0  0  0
    5.6883  -17.7012   -6.6392 C   0  0  0  0  0  0
    3.4769  -20.5787   -5.7372 C   0  0  0  0  0  0
    5.2161  -18.8218   -5.8701 C   0  0  0  0  0  0
    1.9602  -20.4539   -9.0691 O   0  0  0  0  0  0
    4.5915  -17.5420   -9.2027 C   0  0  1  0  0  0
    4.2122  -18.6296   -8.4075 C   0  0  0  0  0  0
    2.3826  -21.0726   -6.6073 C   0  0  0  0  0  0
    3.3304  -16.8519   -9.4313 N   0  0  0  0  0  0
    5.1374  -17.6445   -7.8975 C   0  0  0  0  0  0
    2.2324  -19.9300   -9.8931 H   0  0  0  0  0  0
    3.1005  -16.3867   -8.5457 H   0  0  0  0  0  0
    3.4209  -16.0886  -10.1183 H   0  0  0  0  0  0
    5.3401  -17.9795  -10.3287 O   0  0  0  0  0  0
    5.2147  -17.0993  -11.4394 C   0  0  0  0  0  0
    4.1859  -17.5799  -12.4005 N   0  0  2  0  0  0
    3.5830  -18.3044  -11.9553 H   0  0  0  0  0  0
    5.3150  -19.5808  -13.3840 C   0  0  1  0  0  0
    4.5739  -19.9605  -14.6262 C   0  0  2  0  0  0
    3.2368  -21.2114  -15.5282 C   0  0  0  0  0  0
    4.6640  -21.2062  -15.3756 C   0  0  1  0  0  0
    6.8281  -19.7526  -13.4059 C   0  0  0  0  0  0
    2.1054  -20.3064  -15.7709 C   0  0  0  0  0  0
    4.7914  -18.1631  -13.6029 C   0  0  1  0  0  0
    3.7780  -18.6776  -14.6784 C   0  0  2  0  0  0
    2.0415  -21.3821  -14.8268 C   0  0  0  0  0  0
    5.3638  -21.1332  -16.7222 C   0  0  0  0  0  0
    3.0238  -20.0308  -14.4396 C   0  0  2  0  0  0
  1  2  1  0  0  0
  1  3  2  0  0  0
  1  9  1  0  0  0
  2  5  2  0  0  0
  2  6  1  0  0  0
  3  7  1  0  0  0
  3 10  1  0  0  0
  4  6  2  0  0  0
  4 12  1  0  0  0
  5 10  1  0  0  0
  7 13  1  0  0  0
  8  9  1  0  0  0
  8 16  1  0  0  0
  8 11  1  0  0  0
  8 12  1  0  0  0
  9 12  2  0  0  0
 11 14  1  0  0  0
 11 15  1  0  0  0
 16 17  1  0  0  0
 17 18  1  0  0  0
 18 26  1  0  0  0
 18 19  1  0  0  0
 20 21  1  0  0  0
 20 24  1  0  0  0
 20 26  1  0  0  0
 21 23  1  0  0  0
 21 27  1  0  0  0
 21 30  1  0  0  0
 22 23  1  0  0  0
 22 25  2  0  0  0
 22 28  1  0  0  0
 23 29  1  0  0  0
 25 28  1  0  0  0
 25 30  1  0  0  0
 26 27  1  0  0  0
 27 30  1  0  0  0
M  END
> <s_m_entry_id>
706

> <s_m_entry_name>
10-myco-4_1_lig_gen_fit_add_gna.sdf.10

> <s_m_Source_Path>
C:\Users\maila\Downloads\mgr\myco-analysis

> <s_m_Source_File>
myco-10-var4-wzakresie.mae

> <i_m_Source_File_Index>
3

> <s_user_SMILES>
C[C@@H]1C(C2)=C2[C@@H]([C@@]134)[C@H]3[C@H]([C@@H]4C)NCO[C@]5(N)c(c56)ccc=7c6=C(O)CC7

> <minimizedAffinity>
-9.21009

> <minimizedRMSD>
0.64124

> <CNNscore>
0.5079100132

> <CNNaffinity>
6.0739884377

> <CNN_VS>
3.0850396156

> <CNNaffinity_variance>
0.2517992854

$$$$
CC=C=CC=C=C=C=C1C(CC)=C[C@H](C)C(C1)=C=C(O)CC2=CC(C)=CC2
                    3D
 Schrodinger Suite 2021-1.
 28 29  0  0  1  0            999 V2000
    4.9051  -18.5019  -13.3750 C   0  0  0  0  0  0
    5.3397  -16.0546  -12.5933 C   0  0  0  0  0  0
    5.7120  -17.0320  -10.4845 C   0  0  0  0  0  0
    8.2142  -18.3388  -11.4751 C   0  0  0  0  0  0
   -0.0160  -15.2332  -15.0575 C   0  0  0  0  0  0
    4.4295  -17.0910  -13.2162 C   0  0  0  0  0  0
    5.0461  -17.3377   -9.4205 C   0  0  0  0  0  0
    6.1223  -18.8531  -12.8977 C   0  0  0  0  0  0
    3.2721  -16.6966  -13.6758 C   0  0  0  0  0  0
    3.6627  -17.2438   -9.4696 O   0  0  0  0  0  0
    6.2475  -16.7573  -11.6399 C   0  0  0  0  0  0
    2.1655  -16.2561  -14.1434 C   0  0  0  0  0  0
    1.0805  -15.7697  -14.6113 C   0  0  0  0  0  0
    7.0490  -17.8166  -12.3197 C   0  0  1  0  0  0
    3.1353  -17.5672   -8.6774 H   0  0  0  0  0  0
   -1.2279  -14.4980  -16.9782 C   0  0  0  0  0  0
   -2.1114  -13.6593  -17.4473 C   0  0  0  0  0  0
   -3.5630  -13.9078  -17.2571 C   0  0  0  0  0  0
   -0.3653  -15.3338  -16.4711 C   0  0  0  0  0  0
    4.0651  -19.5201  -14.1132 C   0  0  0  0  0  0
    4.6332  -19.8051  -15.4949 C   0  0  0  0  0  0
    5.7675  -17.7971   -8.1947 C   0  0  0  0  0  0
    4.3732  -19.9808   -5.4758 C   0  0  0  0  0  0
    3.5863  -20.2921   -6.4876 C   0  0  0  0  0  0
    4.9824  -18.7219   -7.3042 C   0  0  0  0  0  0
    5.3637  -18.9622   -5.8886 C   0  0  0  0  0  0
    3.9579  -19.4932   -7.6380 C   0  0  0  0  0  0
    2.4180  -21.2212   -6.4053 C   0  0  0  0  0  0
  1 20  1  0  0  0
  1  6  1  0  0  0
  1  8  2  0  0  0
  2  6  1  0  0  0
  2 11  1  0  0  0
  3  7  2  0  0  0
  3 11  2  0  0  0
  4 14  1  0  0  0
  5 13  2  0  0  0
  5 19  1  0  0  0
  6  9  2  0  0  0
  7 22  1  0  0  0
  7 10  1  0  0  0
  8 14  1  0  0  0
  9 12  2  0  0  0
 10 15  1  0  0  0
 11 14  1  0  0  0
 12 13  2  0  0  0
 16 17  2  0  0  0
 16 19  2  0  0  0
 17 18  1  0  0  0
 20 21  1  0  0  0
 22 25  1  0  0  0
 23 24  2  0  0  0
 23 26  1  0  0  0
 24 27  1  0  0  0
 24 28  1  0  0  0
 25 26  1  0  0  0
 25 27  2  0  0  0
M  END
> <s_m_entry_id>
707

> <s_m_entry_name>
10-myco-4_2_lig_gen_fit_add_gna.sdf.7

> <s_m_Source_Path>
C:\Users\maila\Downloads\mgr\myco-analysis

> <s_m_Source_File>
myco-10-var4-wzakresie.mae

> <i_m_Source_File_Index>
4

> <s_user_SMILES>
CC=C=CC=C=C=C=C1C(CC)=C[C@H](C)C(C1)=C=C(O)CC2=CC(C)=CC2

> <minimizedAffinity>
-9.96881

> <minimizedRMSD>
0.55754

> <CNNscore>
0.4709928036

> <CNNaffinity>
6.4441003799

> <CNN_VS>
3.0351250172

> <CNNaffinity_variance>
0.0161144584

$$$$
C1C=CC(=C12)C=NC2=C=C([C@@H](C3)N)CCC(\CCCN)=C/[C@@H]4[C@@](C)(C5OO5)[C@H]([C@]346)[C@@H]6C[C@H]7[C@@H](C7)O
                    3D
 Schrodinger Suite 2021-1.
 40 46  0  0  1  0            999 V2000
  -21.4210  -18.3441   13.4226 C   0  0  0  0  0  0
  -20.1595  -18.0245   13.2772 C   0  0  0  0  0  0
  -25.5195  -18.6481   12.1209 N   0  0  0  0  0  0
  -21.2450  -16.0835   12.9936 C   0  0  0  0  0  0
  -21.5998  -19.6586   12.8151 C   0  0  0  0  0  0
  -22.2724  -17.1356   13.2581 C   0  0  0  0  0  0
  -22.0825  -20.3306    6.5874 C   0  0  0  0  0  0
  -23.8512  -20.3689   11.7060 C   0  0  0  0  0  0
  -25.8183  -19.1611    7.2486 C   0  0  2  0  0  0
  -25.5725  -19.6121    9.8744 C   0  0  0  0  0  0
  -19.5290  -19.0579   12.4969 C   0  0  0  0  0  0
  -24.3947  -22.7145   10.8464 C   0  0  0  0  0  0
  -24.4058  -21.7299   12.0209 C   0  0  0  0  0  0
  -24.1489  -21.1308    8.0489 C   0  0  2  0  0  0
  -25.0049  -19.9007    8.4155 C   0  0  1  0  0  0
  -20.3518  -20.0280   12.2470 N   0  0  0  0  0  0
  -23.1459  -21.4598    9.1270 C   0  0  0  0  0  0
  -20.0366  -16.6166   13.0206 C   0  0  0  0  0  0
  -24.2926  -19.1219    7.4021 C   0  0  1  0  0  0
  -22.7193  -20.0289   12.2647 C   0  0  0  0  0  0
  -23.2275  -22.5585    9.8897 C   0  0  0  0  0  0
  -24.6827  -19.2626   11.0859 C   0  0  1  0  0  0
  -23.6112  -20.3743    6.7944 C   0  0  1  0  0  0
  -26.0442  -19.3970   12.6272 H   0  0  0  0  0  0
  -24.9100  -18.1917   12.8364 H   0  0  0  0  0  0
  -23.8754  -20.0216    4.2729 O   0  0  0  0  0  0
  -24.1579  -20.7857    5.3837 C   0  0  0  0  0  0
  -23.1184  -21.0982    4.5321 O   0  0  0  0  0  0
  -26.1252  -17.7164    6.7574 C   0  0  0  0  0  0
  -27.1487  -16.5607    4.6701 C   0  0  1  0  0  0
  -26.2910  -17.6849    5.2273 C   0  0  1  0  0  0
  -25.6411  -16.5056    4.5043 C   0  0  0  0  0  0
  -27.8074  -16.9065    3.4852 O   0  0  0  0  0  0
  -28.6938  -16.4643    3.5307 H   0  0  0  0  0  0
  -22.0171  -23.4588    9.9901 C   0  0  0  0  0  0
  -21.2659  -23.5378    8.6474 C   0  0  0  0  0  0
  -21.7205  -24.7223    7.7841 C   0  0  0  0  0  0
  -22.0937  -25.8851    8.5906 N   0  0  0  0  0  0
  -21.2284  -26.3036    9.0039 H   0  0  0  0  0  0
  -22.7113  -25.5810    9.3794 H   0  0  0  0  0  0
  1  2  2  0  0  0
  1  5  1  0  0  0
  1  6  1  0  0  0
  2 11  1  0  0  0
  2 18  1  0  0  0
  3 22  1  0  0  0
  3 24  1  0  0  0
  3 25  1  0  0  0
  4  6  1  0  0  0
  4 18  2  0  0  0
  5 16  1  0  0  0
  5 20  2  0  0  0
  7 23  1  0  0  0
  8 13  1  0  0  0
  8 20  2  0  0  0
  8 22  1  0  0  0
  9 29  1  0  0  0
  9 15  1  0  0  0
  9 19  1  0  0  0
 10 15  1  0  0  0
 10 22  1  0  0  0
 11 16  2  0  0  0
 12 13  1  0  0  0
 12 21  1  0  0  0
 14 15  1  0  0  0
 14 17  1  0  0  0
 14 23  1  0  0  0
 15 19  1  0  0  0
 17 21  2  0  0  0
 19 23  1  0  0  0
 21 35  1  0  0  0
 23 27  1  0  0  0
 26 27  1  0  0  0
 26 28  1  0  0  0
 27 28  1  0  0  0
 29 31  1  0  0  0
 30 31  1  0  0  0
 30 32  1  0  0  0
 30 33  1  0  0  0
 31 32  1  0  0  0
 33 34  1  0  0  0
 35 36  1  0  0  0
 36 37  1  0  0  0
 37 38  1  0  0  0
 38 39  1  0  0  0
 38 40  1  0  0  0
M  END
> <s_m_entry_id>
708

> <s_m_entry_name>
10-myco-4_4_lig_gen_fit_add_gna.sdf.1

> <s_m_Source_Path>
C:\Users\maila\Downloads\mgr\myco-analysis

> <s_m_Source_File>
myco-10-var4-wzakresie.mae

> <i_m_Source_File_Index>
5

> <s_user_SMILES>
C1C=CC(=C12)C=NC2=C=C([C@@H](C3)N)CCC(\CCCN)=C/[C@@H]4[C@@](C)(C5OO5)[C@H]([C@]346)[C@@H]6C[C@H]7[C@@H](C7)O

> <minimizedAffinity>
-10.75302

> <minimizedRMSD>
0.68912

> <CNNscore>
0.4358509183

> <CNNaffinity>
7.4797987938

> <CNN_VS>
3.2600772381

> <CNNaffinity_variance>
0.1457824111

$$$$
C1C=CC=C1\C=C\CC[C@@H]2C[C@@H](C2)CCC3=Nc(c34)c(C)[nH]c4N
                    3D
 Schrodinger Suite 2021-1.
 27 30  0  0  1  0            999 V2000
  -24.2590  -19.5816   12.0034 C   0  0  0  0  0  0
  -24.3769  -22.1433   11.5428 C   0  0  0  0  0  0
  -25.1153  -20.8698    9.9669 C   0  0  0  0  0  0
  -25.0845  -20.7843   11.4918 C   0  0  2  0  0  0
  -24.2829  -22.1468   10.0242 C   0  0  1  0  0  0
  -22.8595  -21.9210    9.4988 C   0  0  0  0  0  0
  -22.2681  -23.1439    8.7651 C   0  0  0  0  0  0
  -22.4418  -22.9762    7.2869 C   0  0  0  0  0  0
  -21.5040  -22.3495    6.5702 C   0  0  0  0  0  0
  -21.8437  -21.5357    5.3987 C   0  0  0  0  0  0
  -23.0468  -20.6944    3.6962 C   0  0  0  0  0  0
  -22.4522  -19.6455    4.2406 C   0  0  0  0  0  0
  -22.6672  -21.8873    4.4191 C   0  0  0  0  0  0
  -21.5711  -20.0675    5.3607 C   0  0  0  0  0  0
  -22.9380  -20.0225   12.6618 C   0  0  0  0  0  0
  -21.1368  -18.2462   12.5011 C   0  0  0  0  0  0
  -19.8759  -17.8693   12.5054 C   0  0  0  0  0  0
  -22.7937  -17.7038   13.5450 N   0  0  0  0  0  0
  -21.9702  -17.0991   12.6848 C   0  0  0  0  0  0
  -18.8628  -18.6161   13.1564 N   0  0  0  0  0  0
  -19.8751  -16.4228   12.5954 N   0  0  0  0  0  0
  -21.1034  -15.9720   12.6580 C   0  0  0  0  0  0
  -22.0833  -18.9047   13.2791 C   0  0  0  0  0  0
  -21.4726  -14.6352   13.1248 C   0  0  0  0  0  0
  -19.0003  -19.6272   13.3497 H   0  0  0  0  0  0
  -18.0146  -18.1247   13.5153 H   0  0  0  0  0  0
  -19.0675  -15.8599   12.6077 H   0  0  0  0  0  0
  1  4  1  0  0  0
  1 15  1  0  0  0
  2  4  1  0  0  0
  2  5  1  0  0  0
  3  4  1  0  0  0
  3  5  1  0  0  0
  5  6  1  0  0  0
  6  7  1  0  0  0
  7  8  1  0  0  0
  8  9  2  0  0  0
  9 10  1  0  0  0
 10 13  2  0  0  0
 10 14  1  0  0  0
 11 12  2  0  0  0
 11 13  1  0  0  0
 12 14  1  0  0  0
 15 23  1  0  0  0
 16 17  2  0  0  0
 16 19  1  0  0  0
 16 23  1  0  0  0
 17 20  1  0  0  0
 17 21  1  0  0  0
 18 19  1  0  0  0
 18 23  2  0  0  0
 19 22  2  0  0  0
 20 25  1  0  0  0
 20 26  1  0  0  0
 21 22  1  0  0  0
 21 27  1  0  0  0
 22 24  1  0  0  0
M  END
> <s_m_entry_id>
709

> <s_m_entry_name>
10-myco-4_5_lig_gen_fit_add_gna.sdf.7

> <s_m_Source_Path>
C:\Users\maila\Downloads\mgr\myco-analysis

> <s_m_Source_File>
myco-10-var4-wzakresie.mae

> <i_m_Source_File_Index>
6

> <s_user_SMILES>
C1C=CC=C1\C=C\CC[C@@H]2C[C@@H](C2)CCC3=Nc(c34)c(C)[nH]c4N

> <minimizedAffinity>
-8.55457

> <minimizedRMSD>
0.79741

> <CNNscore>
0.4682557583

> <CNNaffinity>
6.5805997849

> <CNN_VS>
3.0814037323

> <CNNaffinity_variance>
0.0588466153

$$$$
O=C=CC1(C)C(C12)C2CC3=c(ccc(c4)N)c4=C5C3=[C]56C=C(C=C6)CNCO
                    3D
 Schrodinger Suite 2021-1.
 32 37  0  0  1  0            999 V2000
  -22.7996  -21.2900   10.5798 C   0  0  0  0  0  0
  -22.2033  -22.0275    8.1554 C   0  0  0  0  0  0
  -24.9824  -19.4489    7.4832 C   0  0  0  0  0  0
  -22.2028  -22.0830    9.7224 C   0  0  0  0  0  0
  -19.7468  -24.3297    8.0621 C   0  0  0  0  0  0
  -23.6809  -20.6507    9.6268 C   0  0  0  0  0  0
  -21.9495  -24.4294    8.6249 C   0  0  0  0  0  0
  -25.3175  -19.0985    8.8052 C   0  0  0  0  0  0
  -19.9979  -23.1227    8.5591 C   0  0  0  0  0  0
  -20.9502  -25.1519    8.1439 C   0  0  0  0  0  0
  -25.6053  -18.7762    6.3873 N   0  0  0  0  0  0
  -24.0216  -20.4465    7.2411 C   0  0  0  0  0  0
  -23.4162  -21.1070    8.3155 C   0  0  0  0  0  0
  -21.4661  -23.0539    8.8621 C   0  0  0  0  0  0
  -24.6516  -19.6832    9.8854 C   0  0  0  0  0  0
  -26.2959  -18.0124    6.5554 H   0  0  0  0  0  0
  -25.3643  -19.0200    5.4015 H   0  0  0  0  0  0
  -22.7732  -21.1828   12.0819 C   0  0  0  0  0  0
  -20.9465  -17.9645   13.0598 C   0  0  0  0  0  0
  -21.5778  -20.3160   12.4911 C   0  0  0  0  0  0
  -21.6798  -19.2162   13.5586 C   0  0  0  0  0  0
  -21.5716  -16.5721   13.1486 C   0  0  0  0  0  0
  -21.7345  -18.8497   12.1154 C   0  0  0  0  0  0
  -18.6711  -17.0548   12.8136 C   0  0  0  0  0  0
  -19.4595  -18.0947   12.8420 C   0  0  0  0  0  0
  -17.9221  -16.0728   12.7915 O   0  0  0  0  0  0
  -18.4224  -24.8179    7.5429 C   0  0  0  0  0  0
  -17.5752  -23.6877    7.1441 N   0  0  0  0  0  0
  -17.1557  -23.2756    8.0090 H   0  0  0  0  0  0
  -16.4693  -24.1312    6.2911 C   0  0  0  0  0  0
  -16.9207  -25.1435    5.4321 O   0  0  0  0  0  0
  -16.1443  -25.3850    4.8637 H   0  0  0  0  0  0
  1  4  1  0  0  0
  1  6  2  0  0  0
  1 18  1  0  0  0
  2  4  1  0  0  0
  2 13  2  0  0  0
  2 14  1  0  0  0
  3  8  1  0  0  0
  3 11  1  0  0  0
  3 12  2  0  0  0
  4 14  2  0  0  0
  5  9  2  0  0  0
  5 10  1  0  0  0
  5 27  1  0  0  0
  6 13  1  0  0  0
  6 15  1  0  0  0
  7 10  2  0  0  0
  7 14  1  0  0  0
  8 15  2  0  0  0
  9 14  1  0  0  0
 11 16  1  0  0  0
 11 17  1  0  0  0
 12 13  1  0  0  0
 18 20  1  0  0  0
 19 25  1  0  0  0
 19 21  1  0  0  0
 19 22  1  0  0  0
 19 23  1  0  0  0
 20 21  1  0  0  0
 20 23  1  0  0  0
 21 23  1  0  0  0
 24 25  2  0  0  0
 24 26  2  0  0  0
 27 28  1  0  0  0
 28 30  1  0  0  0
 28 29  1  0  0  0
 30 31  1  0  0  0
 31 32  1  0  0  0
M  END
> <s_m_entry_id>
710

> <s_m_entry_name>
10-myco-4_32_lig_gen_fit_add_gna.sdf.6

> <s_m_Source_Path>
C:\Users\maila\Downloads\mgr\myco-analysis

> <s_m_Source_File>
myco-10-var4-wzakresie.mae

> <i_m_Source_File_Index>
7

> <s_user_SMILES>
O=C=CC1(C)C(C12)C2CC3=c(ccc(c4)N)c4=C5C3=[C]56C=C(C=C6)CNCO

> <minimizedAffinity>
-9.19587

> <minimizedRMSD>
0.63054

> <CNNscore>
0.426620245

> <CNNaffinity>
6.7236719131

> <CNN_VS>
2.8684544563

> <CNNaffinity_variance>
0.2763538957

$$$$
Cc(c1)ccc(c12)C2C[C]3(CCC)=C(C34C)C(=C4)C5C(Cl)=CC(C=56)=CC6
                    3D
 Schrodinger Suite 2021-1.
 26 31  0  0  1  0            999 V2000
  -22.3222  -21.1779   11.4572 C   0  0  0  0  0  0
  -23.3059  -22.0501   11.8154 C   0  0  0  0  0  0
  -22.6776  -24.4178   10.9804 C   0  0  0  0  0  0
  -21.9492  -22.0714   10.3116 C   0  0  0  0  0  0
  -22.9781  -22.3403    9.2147 C   0  0  0  0  0  0
  -23.0563  -22.9454   10.6389 C   0  0  0  0  0  0
  -20.8933  -17.9335   12.6090 C   0  0  0  0  0  0
  -20.7758  -19.3469   12.3432 C   0  0  0  0  0  0
  -19.5610  -17.7331   12.8234 C   0  0  0  0  0  0
  -22.2518  -17.5273   12.4681 C   0  0  0  0  0  0
  -19.3773  -19.1532   12.6194 C   0  0  0  0  0  0
  -21.9573  -19.8510   12.0158 C   0  0  0  0  0  0
  -22.8847  -18.6710   12.1154 C   0  0  0  0  0  0
  -24.5720  -18.7296   11.6909 Cl  0  0  0  0  0  0
  -22.5434  -23.2979    8.0821 C   0  0  0  0  0  0
  -18.6168  -25.3591    7.2131 C   0  0  0  0  0  0
  -20.5205  -24.9062    5.5584 C   0  0  0  0  0  0
  -19.0018  -24.3359    8.1474 C   0  0  0  0  0  0
  -20.8344  -23.9524    6.4738 C   0  0  0  0  0  0
  -19.3429  -25.6416    5.9635 C   0  0  0  0  0  0
  -21.2445  -22.9387    7.3560 C   0  0  0  0  0  0
  -18.8184  -26.7283    5.0706 C   0  0  0  0  0  0
  -20.1080  -23.6826    7.7111 C   0  0  0  0  0  0
  -24.2483  -21.4732    8.9265 C   0  0  0  0  0  0
  -24.0520  -20.1488    8.1407 C   0  0  0  0  0  0
  -23.8248  -20.2540    6.6396 C   0  0  0  0  0  0
  1  2  2  0  0  0
  1  4  1  0  0  0
  1 12  1  0  0  0
  2  6  1  0  0  0
  3  6  1  0  0  0
  4  5  2  0  0  0
  4  6  1  0  0  0
  5 15  1  0  0  0
  5  6  1  0  0  0
  5 24  1  0  0  0
  7  8  1  0  0  0
  7  9  2  0  0  0
  7 10  1  0  0  0
  8 11  1  0  0  0
  8 12  2  0  0  0
  9 11  1  0  0  0
 10 13  2  0  0  0
 12 13  1  0  0  0
 13 14  1  0  0  0
 15 21  1  0  0  0
 16 18  2  0  0  0
 16 20  1  0  0  0
 17 19  1  0  0  0
 17 20  2  0  0  0
 18 23  1  0  0  0
 19 21  1  0  0  0
 19 23  2  0  0  0
 20 22  1  0  0  0
 21 23  1  0  0  0
 24 25  1  0  0  0
 25 26  1  0  0  0
M  END
> <s_m_entry_id>
711

> <s_m_entry_name>
10-myco-4_37_lig_gen_fit_add_gna.sdf.5

> <s_m_Source_Path>
C:\Users\maila\Downloads\mgr\myco-analysis

> <s_m_Source_File>
myco-10-var4-wzakresie.mae

> <i_m_Source_File_Index>
8

> <s_user_SMILES>
Cc(c1)ccc(c12)C2C[C]3(CCC)=C(C34C)C(=C4)C5C(Cl)=CC(C=56)=CC6

> <minimizedAffinity>
-8.1866

> <minimizedRMSD>
0.86834

> <CNNscore>
0.3598392308

> <CNNaffinity>
6.4260950089

> <CNN_VS>
2.312361002

> <CNNaffinity_variance>
0.1830048561

$$$$
c1c2cccc(-c(c3C)nccc3)c(c4c5c12)[C@@H]([C@H]45)c(cc6)ccc6C
                    3D
 Schrodinger Suite 2021-1.
 26 31  0  0  1  0            999 V2000
  -24.3752   21.5585   -9.9125 C   0  0  0  0  0  0
  -25.8637   21.7000   -9.8132 C   0  0  0  0  0  0
  -23.5027   21.6138  -11.2703 C   0  0  0  0  0  0
  -25.3857   20.4932  -10.3839 C   0  0  0  0  0  0
  -25.5053   19.2125  -10.9389 C   0  0  0  0  0  0
  -23.0969   18.9234  -11.0921 C   0  0  0  0  0  0
  -25.0597   21.8770  -11.0903 C   0  0  0  0  0  0
  -23.8985   22.8427  -10.7501 C   0  0  2  0  0  0
  -22.3456   22.7499  -11.2454 C   0  0  2  0  0  0
  -22.3008   21.1682  -11.5427 C   0  0  0  0  0  0
  -22.1982   19.7759  -11.8353 C   0  0  0  0  0  0
  -24.3908   18.5770  -11.4699 C   0  0  0  0  0  0
  -20.5555   24.8529   -7.9616 C   0  0  0  0  0  0
  -21.4623   23.4054  -10.2000 C   0  0  0  0  0  0
  -20.6169   23.4503   -7.9163 C   0  0  0  0  0  0
  -20.8911   25.5196   -9.1393 C   0  0  0  0  0  0
  -20.1541   25.6606   -6.7707 C   0  0  0  0  0  0
  -21.0840   22.7314   -9.0244 C   0  0  0  0  0  0
  -21.3547   24.8067  -10.2379 C   0  0  0  0  0  0
  -22.3301   17.3239  -13.4686 C   0  0  0  0  0  0
  -18.6739   17.5527  -12.8132 C   0  0  0  0  0  0
  -21.0513   17.8173  -12.9470 C   0  0  0  0  0  0
  -20.9645   19.0911  -12.3410 C   0  0  0  0  0  0
  -18.6072   18.8346  -12.2885 C   0  0  0  0  0  0
  -19.9119   17.0328  -13.1285 C   0  0  0  0  0  0
  -19.7338   19.5565  -12.0224 N   0  0  0  0  0  0
  1  2  2  0  0  0
  1  4  1  0  0  0
  1  7  1  0  0  0
  2  4  1  0  0  0
  3  7  2  0  0  0
  3  8  1  0  0  0
  3 10  1  0  0  0
  4  5  2  0  0  0
  5 12  1  0  0  0
  6 11  1  0  0  0
  6 12  2  0  0  0
  7  8  1  0  0  0
  8  9  1  0  0  0
  9 14  1  0  0  0
  9 10  1  0  0  0
 10 11  2  0  0  0
 11 23  1  0  0  0
 13 15  2  0  0  0
 13 16  1  0  0  0
 13 17  1  0  0  0
 14 18  2  0  0  0
 14 19  1  0  0  0
 15 18  1  0  0  0
 16 19  2  0  0  0
 20 22  1  0  0  0
 21 24  2  0  0  0
 21 25  1  0  0  0
 22 23  1  0  0  0
 22 25  2  0  0  0
 23 26  2  0  0  0
 24 26  1  0  0  0
M  END
> <s_m_entry_id>
712

> <s_m_entry_name>
10-myco-4_38_lig_gen_fit_add_gna.sdf.7

> <s_m_Source_Path>
C:\Users\maila\Downloads\mgr\myco-analysis

> <s_m_Source_File>
myco-10-var4-wzakresie.mae

> <i_m_Source_File_Index>
9

> <s_user_SMILES>
c1c2cccc(-c(c3C)nccc3)c(c4c5c12)[C@@H]([C@H]45)c(cc6)ccc6C

> <minimizedAffinity>
-9.01335

> <minimizedRMSD>
0.40896

> <CNNscore>
0.7332957983

> <CNNaffinity>
6.7489638329

> <CNN_VS>
4.9489870071

> <CNNaffinity_variance>
0.2978518009

$$$$
NC[C@H](C)CCc1c(Cl)cc(cc1)-c2ccccc2
                    3D
 Schrodinger Suite 2021-1.
 21 22  0  0  1  0            999 V2000
  -22.1611   19.1738  -12.1073 C   0  0  0  0  0  0
  -24.2321   19.7819  -10.9712 C   0  0  0  0  0  0
  -23.8002   21.1213  -10.8879 C   0  0  0  0  0  0
  -22.6616   21.4959  -11.5854 C   0  0  0  0  0  0
  -23.4270   18.8162  -11.6097 C   0  0  0  0  0  0
  -21.8097   20.5316  -12.0748 C   0  0  0  0  0  0
  -25.7588   19.3064  -10.2638 Cl  0  0  0  0  0  0
  -19.7858   18.5081  -12.5152 C   0  0  0  0  0  0
  -21.1326   18.1735  -12.5360 C   0  0  0  0  0  0
  -21.4271   16.8458  -12.7835 C   0  0  0  0  0  0
  -18.7614   17.6154  -12.7796 C   0  0  0  0  0  0
  -19.0661   16.2827  -12.8383 C   0  0  0  0  0  0
  -20.3922   15.9078  -12.7513 C   0  0  0  0  0  0
  -24.2807   22.0558   -9.8034 C   0  0  0  0  0  0
  -23.3363   21.9233   -8.5806 C   0  0  0  0  0  0
  -21.7250   22.8909   -6.9043 C   0  0  0  0  0  0
  -22.6259   23.2183   -8.1111 C   0  0  1  0  0  0
  -21.8279   23.9573   -9.2068 C   0  0  0  0  0  0
  -21.7606   25.3951   -8.9451 N   0  0  0  0  0  0
  -20.9849   25.5719   -8.2659 H   0  0  0  0  0  0
  -21.4736   25.8693   -9.8323 H   0  0  0  0  0  0
  1  9  1  0  0  0
  1  5  2  0  0  0
  1  6  1  0  0  0
  2  3  2  0  0  0
  2  5  1  0  0  0
  2  7  1  0  0  0
  3 14  1  0  0  0
  3  4  1  0  0  0
  4  6  2  0  0  0
  8  9  2  0  0  0
  8 11  1  0  0  0
  9 10  1  0  0  0
 10 13  2  0  0  0
 11 12  2  0  0  0
 12 13  1  0  0  0
 14 15  1  0  0  0
 15 17  1  0  0  0
 16 17  1  0  0  0
 17 18  1  0  0  0
 18 19  1  0  0  0
 19 20  1  0  0  0
 19 21  1  0  0  0
M  END
> <s_m_entry_id>
713

> <s_m_entry_name>
10-myco-4_38_lig_gen_fit_add_gna.sdf.10

> <s_m_Source_Path>
C:\Users\maila\Downloads\mgr\myco-analysis

> <s_m_Source_File>
myco-10-var4-wzakresie.mae

> <i_m_Source_File_Index>
10

> <s_user_SMILES>
NC[C@H](C)CCc1c(Cl)cc(cc1)-c2ccccc2

> <minimizedAffinity>
-8.75134

> <minimizedRMSD>
0.94892

> <CNNscore>
0.9016794562

> <CNNaffinity>
6.0715923309

> <CNN_VS>
5.474629879

> <CNNaffinity_variance>
0.1118884534

$$$$
C1=2C(C1)=CC=C[C]2(C)C(=N3)CC=C3C(C4)=CC(C=45)=CC=C5
                    3D
 Schrodinger Suite 2021-1.
 21 25  0  0  1  0            999 V2000
  -23.8466   19.6379  -11.4459 C   0  0  0  0  0  0
  -22.6388   19.8213  -11.9546 C   0  0  0  0  0  0
  -22.8313   21.5332  -10.6426 C   0  0  0  0  0  0
  -24.1336   20.7797  -10.5338 C   0  0  0  0  0  0
  -22.0391   21.0065  -11.4952 N   0  0  0  0  0  0
  -19.8156   17.9360  -13.0666 C   0  0  0  0  0  0
  -20.8253   16.9316  -13.1244 C   0  0  0  0  0  0
  -21.8051   18.8393  -12.6150 C   0  0  0  0  0  0
  -18.9489   16.1202  -12.2236 C   0  0  0  0  0  0
  -18.6261   17.3617  -12.5188 C   0  0  0  0  0  0
  -20.3494   15.8311  -12.5869 C   0  0  0  0  0  0
  -20.3595   19.0655  -12.7020 C   0  0  0  0  0  0
  -22.0996   17.5625  -12.8482 C   0  0  0  0  0  0
  -22.4374   22.7772   -9.8935 C   0  0  0  0  0  0
  -20.2675   23.3363   -8.6327 C   0  0  0  0  0  0
  -22.1947   23.0287   -7.4119 C   0  0  0  0  0  0
  -22.8564   23.9612  -10.7555 C   0  0  0  0  0  0
  -23.1920   22.7818   -8.5380 C   0  0  0  0  0  0
  -20.9023   22.9036   -9.7546 C   0  0  0  0  0  0
  -20.9846   23.5077   -7.3640 C   0  0  0  0  0  0
  -22.9464   21.7163   -7.6454 C   0  0  0  0  0  0
  1  2  2  0  0  0
  1  4  1  0  0  0
  2  8  1  0  0  0
  2  5  1  0  0  0
  3 14  1  0  0  0
  3  4  1  0  0  0
  3  5  2  0  0  0
  6  7  1  0  0  0
  6 10  2  0  0  0
  6 12  1  0  0  0
  7 11  1  0  0  0
  7 13  2  0  0  0
  8 12  2  0  0  0
  8 13  1  0  0  0
  9 10  1  0  0  0
  9 11  2  0  0  0
 14 17  1  0  0  0
 14 18  2  0  0  0
 14 19  1  0  0  0
 15 19  2  0  0  0
 15 20  1  0  0  0
 16 18  1  0  0  0
 16 20  2  0  0  0
 16 21  1  0  0  0
 18 21  1  0  0  0
M  END
> <s_m_entry_id>
714

> <s_m_entry_name>
10-myco-4_39_lig_gen_fit_add_gna.sdf.2

> <s_m_Source_Path>
C:\Users\maila\Downloads\mgr\myco-analysis

> <s_m_Source_File>
myco-10-var4-wzakresie.mae

> <i_m_Source_File_Index>
11

> <s_user_SMILES>
C1=2C(C1)=CC=C[C]2(C)C(=N3)CC=C3C(C4)=CC(C=45)=CC=C5

> <minimizedAffinity>
-8.36186

> <minimizedRMSD>
0.46504

> <CNNscore>
0.3137199283

> <CNNaffinity>
6.0316896439

> <CNN_VS>
1.8922612667

> <CNNaffinity_variance>
0.1114125103

$$$$
c1ccccc1[C@@H](O)Cc(cc2)c(c(c23)CC3=C)CCC4=C[C@H](C)C(=C4)CN
                    3D
 Schrodinger Suite 2021-1.
 31 34  0  0  1  0            999 V2000
  -26.5160   19.0237   -9.5404 C   0  0  0  0  0  0
  -23.6955   20.4027  -10.7794 C   0  0  0  0  0  0
  -22.7587   22.5440  -10.3142 C   0  0  0  0  0  0
  -24.9355   20.8853  -10.3954 C   0  0  0  0  0  0
  -25.2020   22.2059  -10.2456 C   0  0  0  0  0  0
  -24.0696   23.0170  -10.0964 C   0  0  0  0  0  0
  -24.3738   19.1265  -11.0451 C   0  0  0  0  0  0
  -22.5851   21.2572  -10.8732 C   0  0  0  0  0  0
  -25.5069   19.5302  -10.2395 C   0  0  0  0  0  0
  -21.5914   23.2808   -9.6917 C   0  0  0  0  0  0
  -21.6554   24.8193   -9.7121 C   0  0  2  0  0  0
  -21.6997   25.2692  -11.0427 O   0  0  0  0  0  0
  -22.2003   26.1272  -11.0504 H   0  0  0  0  0  0
  -19.1311   27.3192   -8.2445 C   0  0  0  0  0  0
  -19.5612   24.5623   -8.2680 C   0  0  0  0  0  0
  -18.2352   26.4714   -7.5941 C   0  0  0  0  0  0
  -18.4525   25.0940   -7.6024 C   0  0  0  0  0  0
  -20.2348   26.7894   -8.9201 C   0  0  0  0  0  0
  -20.4568   25.4025   -8.9654 C   0  0  0  0  0  0
  -21.4035   21.0220  -11.7468 C   0  0  0  0  0  0
  -21.7122   20.0704  -12.8656 C   0  0  0  0  0  0
  -20.3700   16.6523  -12.9050 C   0  0  0  0  0  0
  -19.5531   18.7546  -12.4370 C   0  0  0  0  0  0
  -21.2632   17.5547  -13.2818 C   0  0  0  0  0  0
  -19.1352   17.3277  -12.4175 C   0  0  2  0  0  0
  -20.7878   18.8693  -12.9249 C   0  0  0  0  0  0
  -17.9111   17.0090  -13.2711 C   0  0  0  0  0  0
  -20.9348   14.2786  -13.1488 N   0  0  0  0  0  0
  -20.8499   15.4058  -12.2546 C   0  0  0  0  0  0
  -21.6414   13.5843  -12.8217 H   0  0  0  0  0  0
  -21.1409   14.5915  -14.0982 H   0  0  0  0  0  0
  1  9  2  0  0  0
  2  4  2  0  0  0
  2  7  1  0  0  0
  2  8  1  0  0  0
  3  6  1  0  0  0
  3 10  1  0  0  0
  3  8  2  0  0  0
  4  5  1  0  0  0
  4  9  1  0  0  0
  5  6  2  0  0  0
  7  9  1  0  0  0
  8 20  1  0  0  0
 10 11  1  0  0  0
 11 19  1  0  0  0
 11 12  1  0  0  0
 12 13  1  0  0  0
 14 16  2  0  0  0
 14 18  1  0  0  0
 15 17  2  0  0  0
 15 19  1  0  0  0
 16 17  1  0  0  0
 18 19  2  0  0  0
 20 21  1  0  0  0
 21 26  1  0  0  0
 22 24  2  0  0  0
 22 25  1  0  0  0
 22 29  1  0  0  0
 23 25  1  0  0  0
 23 26  2  0  0  0
 24 26  1  0  0  0
 25 27  1  0  0  0
 28 29  1  0  0  0
 28 30  1  0  0  0
 28 31  1  0  0  0
M  END
> <s_m_entry_id>
715

> <s_m_entry_name>
10-myco-4_40_lig_gen_fit_add_gna.sdf.1

> <s_m_Source_Path>
C:\Users\maila\Downloads\mgr\myco-analysis

> <s_m_Source_File>
myco-10-var4-wzakresie.mae

> <i_m_Source_File_Index>
12

> <s_user_SMILES>
c1ccccc1[C@@H](O)Cc(cc2)c(c(c23)CC3=C)CCC4=C[C@H](C)C(=C4)CN

> <minimizedAffinity>
-9.14712

> <minimizedRMSD>
0.86402

> <CNNscore>
0.2986760736

> <CNNaffinity>
6.4592628479

> <CNN_VS>
1.9292272329

> <CNNaffinity_variance>
0.1083441824

$$$$
c1cccc(c1C)NCC(C=C2)=C[C@H](C(=C23)C3)c(c4C)ccc(c4)O
                    3D
 Schrodinger Suite 2021-1.
 27 30  0  0  1  0            999 V2000
  -23.1341   22.7658  -11.1758 C   0  0  0  0  0  0
  -23.5711   19.8074  -11.3315 C   0  0  0  0  0  0
  -22.2565   21.8074  -11.6541 C   0  0  0  0  0  0
  -24.6238   22.6698  -10.9071 C   0  0  0  0  0  0
  -25.3344   21.6047  -10.5184 C   0  0  0  0  0  0
  -22.4651   20.3567  -12.1395 C   0  0  1  0  0  0
  -24.7350   20.3362  -10.7175 C   0  0  0  0  0  0
  -24.5455   18.9646  -10.7892 C   0  0  0  0  0  0
  -19.9152   19.9813  -11.9551 C   0  0  0  0  0  0
  -21.2167   18.1392  -12.7588 C   0  0  0  0  0  0
  -18.7976   18.0105  -12.7861 C   0  0  0  0  0  0
  -20.0288   17.4267  -13.0170 C   0  0  0  0  0  0
  -21.1901   19.4674  -12.2492 C   0  0  0  0  0  0
  -17.6114   17.3550  -13.0963 O   0  0  0  0  0  0
  -18.7541   19.2726  -12.2435 C   0  0  0  0  0  0
  -22.4572   17.5074  -13.2177 C   0  0  0  0  0  0
  -17.6127   16.4530  -13.5480 H   0  0  0  0  0  0
  -22.5785   24.1754  -11.0170 C   0  0  0  0  0  0
  -22.6552   24.6788   -9.6511 N   0  0  0  0  0  0
  -23.2987   25.4892   -9.5234 H   0  0  0  0  0  0
  -22.1106   22.6795   -7.5693 C   0  0  0  0  0  0
  -21.4572   24.7555   -8.8807 C   0  0  0  0  0  0
  -21.1436   23.7764   -7.9189 C   0  0  0  0  0  0
  -19.3155   25.8300   -8.5131 C   0  0  0  0  0  0
  -20.5484   25.7872   -9.1575 C   0  0  0  0  0  0
  -18.9795   24.8380   -7.5954 C   0  0  0  0  0  0
  -19.8865   23.8110   -7.3028 C   0  0  0  0  0  0
  1  3  2  0  0  0
  1  4  1  0  0  0
  1 18  1  0  0  0
  2  6  1  0  0  0
  2  7  2  0  0  0
  2  8  1  0  0  0
  3  6  1  0  0  0
  4  5  2  0  0  0
  5  7  1  0  0  0
  6 13  1  0  0  0
  7  8  1  0  0  0
  9 13  2  0  0  0
  9 15  1  0  0  0
 10 12  2  0  0  0
 10 13  1  0  0  0
 10 16  1  0  0  0
 11 12  1  0  0  0
 11 14  1  0  0  0
 11 15  2  0  0  0
 14 17  1  0  0  0
 18 19  1  0  0  0
 19 22  1  0  0  0
 19 20  1  0  0  0
 21 23  1  0  0  0
 22 23  2  0  0  0
 22 25  1  0  0  0
 23 27  1  0  0  0
 24 25  2  0  0  0
 24 26  1  0  0  0
 26 27  2  0  0  0
M  END
> <s_m_entry_id>
716

> <s_m_entry_name>
10-myco-4_40_lig_gen_fit_add_gna.sdf.4

> <s_m_Source_Path>
C:\Users\maila\Downloads\mgr\myco-analysis

> <s_m_Source_File>
myco-10-var4-wzakresie.mae

> <i_m_Source_File_Index>
13

> <s_user_SMILES>
c1cccc(c1C)NCC(C=C2)=C[C@H](C(=C23)C3)c(c4C)ccc(c4)O

> <minimizedAffinity>
-9.54766

> <minimizedRMSD>
0.50701

> <CNNscore>
0.7564316988

> <CNNaffinity>
6.8365335464

> <CNN_VS>
5.1713705063

> <CNNaffinity_variance>
0.0479975045

$$$$
CC/C=C/C(=N1)C=C2C1C=CC=C3C=c(c4=C23)cc(O)cc4
                    3D
 Schrodinger Suite 2021-1.
 23 26  0  0  1  0            999 V2000
  -24.4304   19.1206  -10.9453 C   0  0  0  0  0  0
  -20.9896   19.3957  -12.3493 C   0  0  0  0  0  0
  -23.2680   19.1496  -11.8864 C   0  0  0  0  0  0
  -24.8280   21.5744  -10.8322 C   0  0  0  0  0  0
  -22.2372   21.3199  -11.1914 C   0  0  0  0  0  0
  -19.6268   19.5734  -12.0812 C   0  0  0  0  0  0
  -19.1880   17.3045  -12.8414 C   0  0  0  0  0  0
  -20.5614   17.1023  -13.0279 C   0  0  0  0  0  0
  -21.1766   22.2619  -10.8341 C   0  0  0  0  0  0
  -22.1635   20.1256  -11.8183 C   0  0  0  0  0  0
  -25.2672   20.3439  -11.0480 C   0  0  0  0  0  0
  -21.7355   23.2097  -10.0895 C   0  0  0  0  0  0
  -18.2980   16.2635  -13.0823 O   0  0  0  0  0  0
  -23.4323   21.9475  -10.6151 C   0  0  3  0  0  0
  -22.8469   18.0380  -12.4745 C   0  0  0  0  0  0
  -21.4357   18.1590  -12.7722 C   0  0  0  0  0  0
  -18.7222   18.5447  -12.3757 C   0  0  0  0  0  0
  -23.1381   23.0390   -9.9944 N   0  0  0  0  0  0
  -17.3001   16.3787  -12.9465 H   0  0  0  0  0  0
  -21.0443   24.3346   -9.4414 C   0  0  0  0  0  0
  -20.2706   24.1665   -8.3658 C   0  0  0  0  0  0
  -19.5843   25.3235   -7.7017 C   0  0  0  0  0  0
  -19.7762   26.6039   -8.5034 C   0  0  0  0  0  0
  1  3  2  0  0  0
  1 11  1  0  0  0
  2  6  1  0  0  0
  2 10  2  0  0  0
  2 16  1  0  0  0
  3 10  1  0  0  0
  3 15  1  0  0  0
  4 11  2  0  0  0
  4 14  1  0  0  0
  5  9  2  0  0  0
  5 10  1  0  0  0
  5 14  1  0  0  0
  6 17  2  0  0  0
  7  8  2  0  0  0
  7 13  1  0  0  0
  7 17  1  0  0  0
  8 16  1  0  0  0
  9 12  1  0  0  0
 12 20  1  0  0  0
 12 18  2  0  0  0
 13 19  1  0  0  0
 14 18  1  0  0  0
 15 16  2  0  0  0
 20 21  2  0  0  0
 21 22  1  0  0  0
 22 23  1  0  0  0
M  END
> <s_m_entry_id>
717

> <s_m_entry_name>
10-myco-4_40_lig_gen_fit_add_gna.sdf.10

> <s_m_Source_Path>
C:\Users\maila\Downloads\mgr\myco-analysis

> <s_m_Source_File>
myco-10-var4-wzakresie.mae

> <i_m_Source_File_Index>
14

> <s_user_SMILES>
CC/C=C/C(=N1)C=C2C1C=CC=C3C=c(c4=C23)cc(O)cc4

> <minimizedAffinity>
-10.22874

> <minimizedRMSD>
1.05929

> <CNNscore>
0.8024792075

> <CNNaffinity>
6.5808706284

> <CNN_VS>
5.2810120583

> <CNNaffinity_variance>
0.0490329526

$$$$
CC/C(N)=C\C=C\1N(C12)C=2CC(=C3)CC=C3C[C@@H]4[C@@H](N)[C@H](C)C4
                    3D
 Schrodinger Suite 2021-1.
 27 30  0  0  1  0            999 V2000
  -23.9460   21.8556   -8.8474 C   0  0  0  0  0  0
  -23.2727   21.3285  -10.9400 C   0  0  0  0  0  0
  -23.1337   22.2412   -9.8226 C   0  0  0  0  0  0
  -24.1317   20.3741  -10.5997 C   0  0  0  0  0  0
  -24.6758   20.6223   -9.2382 C   0  0  0  0  0  0
  -24.4712   19.1765  -11.4340 C   0  0  0  0  0  0
  -21.9672   18.8833  -12.6038 C   0  0  0  0  0  0
  -23.1964   18.5422  -11.9389 C   0  0  0  0  0  0
  -20.5915   19.5377  -12.4452 C   0  0  0  0  0  0
  -21.9446   17.9275  -11.5842 N   0  0  0  0  0  0
  -22.6020   17.6558  -12.8547 C   0  0  0  0  0  0
  -18.9477   17.6161  -12.7155 C   0  0  0  0  0  0
  -19.3506   19.0010  -12.4161 C   0  0  0  0  0  0
  -17.8050   17.0942  -12.0338 N   0  0  0  0  0  0
  -17.3436   16.2277  -12.3802 H   0  0  0  0  0  0
  -17.3094   17.6566  -11.3069 H   0  0  0  0  0  0
  -19.6164   16.8359  -13.5643 C   0  0  0  0  0  0
  -20.1705   15.5442  -13.0978 C   0  0  0  0  0  0
  -22.1921   23.4125   -9.7854 C   0  0  0  0  0  0
  -20.1289   24.2056   -8.4600 C   0  0  0  0  0  0
  -22.0200   24.6665   -7.5520 C   0  0  2  0  0  0
  -20.6544   25.3614   -7.6242 C   0  0  2  0  0  0
  -22.3584   24.2103   -6.2052 N   0  0  0  0  0  0
  -21.4889   23.5218   -8.4236 C   0  0  1  0  0  0
  -20.6588   26.6901   -8.3847 C   0  0  0  0  0  0
  -21.7537   23.4019   -5.9396 H   0  0  0  0  0  0
  -22.1213   24.9687   -5.5311 H   0  0  0  0  0  0
  1  3  2  0  0  0
  1  5  1  0  0  0
  2  3  1  0  0  0
  2  4  2  0  0  0
  3 19  1  0  0  0
  4  6  1  0  0  0
  4  5  1  0  0  0
  6  8  1  0  0  0
  7  9  2  0  0  0
  7 10  1  0  0  0
  7 11  1  0  0  0
  8 10  1  0  0  0
  8 11  2  0  0  0
  9 13  1  0  0  0
 10 11  1  0  0  0
 12 17  1  0  0  0
 12 13  2  0  0  0
 12 14  1  0  0  0
 14 15  1  0  0  0
 14 16  1  0  0  0
 17 18  1  0  0  0
 19 24  1  0  0  0
 20 22  1  0  0  0
 20 24  1  0  0  0
 21 22  1  0  0  0
 21 23  1  0  0  0
 21 24  1  0  0  0
 22 25  1  0  0  0
 23 26  1  0  0  0
 23 27  1  0  0  0
M  END
> <s_m_entry_id>
718

> <s_m_entry_name>
10-myco-4_41_lig_gen_fit_add_gna.sdf.4

> <s_m_Source_Path>
C:\Users\maila\Downloads\mgr\myco-analysis

> <s_m_Source_File>
myco-10-var4-wzakresie.mae

> <i_m_Source_File_Index>
15

> <s_user_SMILES>
CC/C(N)=C\C=C\1N(C12)C=2CC(=C3)CC=C3C[C@@H]4[C@@H](N)[C@H](C)C4

> <minimizedAffinity>
-8.56476

> <minimizedRMSD>
0.90477

> <CNNscore>
0.5895601511

> <CNNaffinity>
6.56528759

> <CNN_VS>
3.8706319332

> <CNNaffinity_variance>
0.0921994373

$$$$
c1cc(Cl)cc(C)c1Cc2cc(ccc2)-c3cc(Cl)c(N)cc3
                    3D
 Schrodinger Suite 2021-1.
 25 27  0  0  1  0            999 V2000
  -25.1797   20.5576  -10.6314 C   0  0  0  0  0  0
  -22.8378   19.5537  -11.8236 C   0  0  0  0  0  0
  -24.1014   21.4087  -10.8982 C   0  0  0  0  0  0
  -23.9236   18.7079  -11.5044 C   0  0  0  0  0  0
  -25.0888   19.2095  -10.9361 C   0  0  0  0  0  0
  -22.9664   20.9195  -11.5535 C   0  0  0  0  0  0
  -21.5362   18.9926  -12.2854 C   0  0  0  0  0  0
  -20.3150   19.6645  -12.0524 C   0  0  0  0  0  0
  -19.0698   17.6613  -12.5954 C   0  0  0  0  0  0
  -20.2865   16.9953  -12.8267 C   0  0  0  0  0  0
  -19.0978   19.0075  -12.2321 C   0  0  0  0  0  0
  -17.8096   16.9992  -12.7191 N   0  0  0  0  0  0
  -20.4353   15.2701  -12.9408 Cl  0  0  0  0  0  0
  -21.4847   17.6839  -12.7728 C   0  0  0  0  0  0
  -16.9285   17.4725  -12.4205 H   0  0  0  0  0  0
  -17.7217   16.0973  -13.2239 H   0  0  0  0  0  0
  -24.1851   22.8465  -10.5217 C   0  0  0  0  0  0
  -22.4936   22.8710   -8.5953 C   0  0  0  0  0  0
  -22.1202   24.2928  -10.5370 C   0  0  0  0  0  0
  -20.9525   24.7870   -9.9544 C   0  0  0  0  0  0
  -22.9070   23.3389   -9.8670 C   0  0  0  0  0  0
  -23.2324   21.7643   -7.8954 C   0  0  0  0  0  0
  -21.3215   23.3866   -8.0171 C   0  0  0  0  0  0
  -20.5570   24.3410   -8.6927 C   0  0  0  0  0  0
  -19.0916   24.9675   -7.9616 Cl  0  0  0  0  0  0
  1  3  2  0  0  0
  1  5  1  0  0  0
  2  7  1  0  0  0
  2  4  1  0  0  0
  2  6  2  0  0  0
  3  6  1  0  0  0
  3 17  1  0  0  0
  4  5  2  0  0  0
  7  8  2  0  0  0
  7 14  1  0  0  0
  8 11  1  0  0  0
  9 10  1  0  0  0
  9 11  2  0  0  0
  9 12  1  0  0  0
 10 13  1  0  0  0
 10 14  2  0  0  0
 12 15  1  0  0  0
 12 16  1  0  0  0
 17 21  1  0  0  0
 18 21  2  0  0  0
 18 22  1  0  0  0
 18 23  1  0  0  0
 19 20  2  0  0  0
 19 21  1  0  0  0
 20 24  1  0  0  0
 23 24  2  0  0  0
 24 25  1  0  0  0
M  END
> <s_m_entry_id>
719

> <s_m_entry_name>
10-myco-4_41_lig_gen_fit_add_gna.sdf.6

> <s_m_Source_Path>
C:\Users\maila\Downloads\mgr\myco-analysis

> <s_m_Source_File>
myco-10-var4-wzakresie.mae

> <i_m_Source_File_Index>
16

> <s_user_SMILES>
c1cc(Cl)cc(C)c1Cc2cc(ccc2)-c3cc(Cl)c(N)cc3

> <minimizedAffinity>
-9.09524

> <minimizedRMSD>
0.45693

> <CNNscore>
0.7812669277

> <CNNaffinity>
6.6595602036

> <CNN_VS>
5.2028942108

> <CNNaffinity_variance>
0.0584214628

$$$$
CCc1cn(CC2=C(C)C2)c(c13)cc(C)c(c3)OC4=N[C@H]4C
                    3D
 Schrodinger Suite 2021-1.
 22 25  0  0  1  0            999 V2000
  -23.8085   18.5787  -11.3876 C   0  0  0  0  0  0
  -25.1885   20.1137   -9.9683 C   0  0  0  0  0  0
  -24.0967   19.7533  -10.7480 C   0  0  0  0  0  0
  -22.0003   20.7111  -11.4282 C   0  0  0  0  0  0
  -23.2548   20.8044  -10.8341 C   0  0  0  0  0  0
  -20.2690   19.3514  -12.5800 C   0  0  0  0  0  0
  -23.8033   21.8510  -10.2238 N   0  0  0  0  0  0
  -21.6361   19.4817  -12.0179 C   0  0  0  0  0  0
  -25.0181   21.4656   -9.7950 C   0  0  0  0  0  0
  -22.5595   18.4011  -12.0139 C   0  0  0  0  0  0
  -27.0610   18.8019   -8.9087 C   0  0  0  0  0  0
  -25.6518   19.3179   -8.7791 C   0  0  0  0  0  0
  -23.1132   22.9960   -9.7091 C   0  0  0  0  0  0
  -22.5255   21.9370   -7.1313 C   0  0  0  0  0  0
  -22.5684   22.7300   -8.3459 C   0  0  0  0  0  0
  -23.0054   20.7790   -6.3221 C   0  0  0  0  0  0
  -21.7635   23.1044   -7.2655 C   0  0  0  0  0  0
  -22.3449   17.1888  -12.6826 O   0  0  0  0  0  0
  -20.7359   15.0351  -12.7332 N   0  0  0  0  0  0
  -19.9801   16.0126  -12.1600 C   0  0  1  0  0  0
  -18.7981   16.3427  -13.0715 C   0  0  0  0  0  0
  -21.2489   16.3361  -12.5466 C   0  0  0  0  0  0
  1  3  2  0  0  0
  1 10  1  0  0  0
  2  3  1  0  0  0
  2 12  1  0  0  0
  2  9  2  0  0  0
  3  5  1  0  0  0
  4  5  2  0  0  0
  4  8  1  0  0  0
  5  7  1  0  0  0
  6  8  1  0  0  0
  7 13  1  0  0  0
  7  9  1  0  0  0
  8 10  2  0  0  0
 10 18  1  0  0  0
 11 12  1  0  0  0
 13 15  1  0  0  0
 14 15  2  0  0  0
 14 16  1  0  0  0
 14 17  1  0  0  0
 15 17  1  0  0  0
 18 22  1  0  0  0
 19 20  1  0  0  0
 19 22  2  0  0  0
 20 21  1  0  0  0
 20 22  1  0  0  0
M  END
> <s_m_entry_id>
720

> <s_m_entry_name>
10-myco-4_43_lig_gen_fit_add_gna.sdf.1

> <s_m_Source_Path>
C:\Users\maila\Downloads\mgr\myco-analysis

> <s_m_Source_File>
myco-10-var4-wzakresie.mae

> <i_m_Source_File_Index>
17

> <s_user_SMILES>
CCc1cn(CC2=C(C)C2)c(c13)cc(C)c(c3)OC4=N[C@H]4C

> <minimizedAffinity>
-8.24153

> <minimizedRMSD>
1.10558

> <CNNscore>
0.6117330194

> <CNNaffinity>
6.3381490707

> <CNN_VS>
3.8772549629

> <CNNaffinity_variance>
0.0826928467

$$$$
C1=CC(Cl)=C(CO)[C]1(O2)=[C]23C=C(C)C4=[C]5([C]346)C=6C=C(C(Cl)=C5)C7(N)CC7
                    3D
 Schrodinger Suite 2021-1.
 29 35  0  0  1  0            999 V2000
  -21.1370   23.5732   -8.2747 C   0  0  0  0  0  0
  -22.1517   17.3117  -12.4648 C   0  0  0  0  0  0
  -22.1291   22.7498  -10.0787 C   0  0  0  0  0  0
  -24.8220   20.2959   -9.7065 C   0  0  0  0  0  0
  -24.4833   19.7951  -11.0642 C   0  0  0  0  0  0
  -23.1295   21.6555  -10.3773 C   0  0  0  0  0  0
  -22.1681   20.0131  -12.1640 C   0  0  0  0  0  0
  -20.7813   22.2222  -10.0851 C   0  0  0  0  0  0
  -20.8423   17.9547  -12.1979 C   0  0  0  0  0  0
  -20.2746   22.5841   -8.9102 C   0  0  0  0  0  0
  -23.2806   17.9322  -12.0662 C   0  0  0  0  0  0
  -24.2428   21.4634   -9.4114 C   0  0  0  0  0  0
  -23.1163   19.1953  -11.2417 C   0  0  0  0  0  0
  -22.1337   23.8768   -9.1109 C   0  0  0  0  0  0
  -23.3624   20.6794  -11.5380 C   0  0  0  0  0  0
  -20.4815   24.6436   -7.0479 Cl  0  0  0  0  0  0
  -20.8735   19.2712  -11.8907 C   0  0  0  0  0  0
  -23.0775   22.8831  -11.0842 O   0  0  0  0  0  0
  -25.5310   19.4111   -8.7311 C   0  0  0  0  0  0
  -22.1791   15.7918  -13.2913 Cl  0  0  0  0  0  0
  -18.2230   17.7256  -12.0474 C   0  0  0  0  0  0
  -19.6235   15.7499  -11.7437 N   0  0  0  0  0  0
  -19.5751   17.1094  -12.2296 C   0  0  0  0  0  0
  -18.6566   17.2761  -13.4277 C   0  0  0  0  0  0
  -19.5332   15.1406  -12.5623 H   0  0  0  0  0  0
  -20.5525   15.5527  -11.3450 H   0  0  0  0  0  0
  -22.1381   25.2623   -9.7351 C   0  0  0  0  0  0
  -23.0267   26.1207   -9.0852 O   0  0  0  0  0  0
  -22.9595   26.9936   -9.5529 H   0  0  0  0  0  0
  1 10  1  0  0  0
  1 14  2  0  0  0
  1 16  1  0  0  0
  2  9  1  0  0  0
  2 11  2  0  0  0
  2 20  1  0  0  0
  3  6  2  0  0  0
  3  8  1  0  0  0
  3 14  1  0  0  0
  3 18  1  0  0  0
  4  5  1  0  0  0
  4 12  2  0  0  0
  4 19  1  0  0  0
  5 13  2  0  0  0
  5 15  1  0  0  0
  6 12  1  0  0  0
  6 15  1  0  0  0
  6 18  1  0  0  0
  7 13  1  0  0  0
  7 15  2  0  0  0
  7 17  1  0  0  0
  8 10  2  0  0  0
  9 23  1  0  0  0
  9 17  2  0  0  0
 11 13  1  0  0  0
 13 15  1  0  0  0
 14 27  1  0  0  0
 21 23  1  0  0  0
 21 24  1  0  0  0
 22 23  1  0  0  0
 22 25  1  0  0  0
 22 26  1  0  0  0
 23 24  1  0  0  0
 27 28  1  0  0  0
 28 29  1  0  0  0
M  END
> <s_m_entry_id>
721

> <s_m_entry_name>
10-myco-4_44_lig_gen_fit_add_gna.sdf.6

> <s_m_Source_Path>
C:\Users\maila\Downloads\mgr\myco-analysis

> <s_m_Source_File>
myco-10-var4-wzakresie.mae

> <i_m_Source_File_Index>
18

> <s_user_SMILES>
C1=CC(Cl)=C(CO)[C]1(O2)=[C]23C=C(C)C4=[C]5([C]346)C=6C=C(C(Cl)=C5)C7(N)CC7

> <minimizedAffinity>
-8.62234

> <minimizedRMSD>
0.57238

> <CNNscore>
0.3111873567

> <CNNaffinity>
6.6069502831

> <CNN_VS>
2.055999279

> <CNNaffinity_variance>
0.1751713455

$$$$
c1ccc(CC)c(=C2)c1=C([C]23=4)C3=C(C=CC4)Cc5cccnc5
                    3D
 Schrodinger Suite 2021-1.
 23 27  0  0  1  0            999 V2000
  -20.9149   19.8858  -11.6837 C   0  0  0  0  0  0
  -23.5541   22.8222  -10.7403 C   0  0  0  0  0  0
  -21.6286   18.7992  -12.0508 C   0  0  0  0  0  0
  -22.9004   21.7365  -11.0483 C   0  0  0  0  0  0
  -19.5441   19.9397  -11.6660 C   0  0  0  0  0  0
  -23.9493   20.1241   -9.8230 C   0  0  0  0  0  0
  -24.8630   22.4422  -10.1339 C   0  0  0  0  0  0
  -18.8622   18.8226  -12.1675 C   0  0  0  0  0  0
  -23.2457   20.3567  -11.1917 C   0  0  0  0  0  0
  -21.8667   20.6846  -11.3999 C   0  0  0  0  0  0
  -20.9847   17.6331  -12.4481 C   0  0  0  0  0  0
  -25.0679   21.1732   -9.6813 C   0  0  0  0  0  0
  -22.9454   19.0356  -11.8951 C   0  0  0  0  0  0
  -19.5695   17.6836  -12.5804 C   0  0  0  0  0  0
  -21.7895   16.3723  -12.5659 C   0  0  0  0  0  0
  -20.9262   15.1388  -12.4448 C   0  0  0  0  0  0
  -22.9360   24.1883  -10.6964 C   0  0  0  0  0  0
  -20.9756   25.1243   -9.4183 C   0  0  0  0  0  0
  -22.7997   24.1814   -8.1544 C   0  0  0  0  0  0
  -20.9897   25.2105   -7.0127 C   0  0  0  0  0  0
  -20.3574   25.4930   -8.2235 C   0  0  0  0  0  0
  -22.2146   24.4668   -9.3997 C   0  0  0  0  0  0
  -22.1824   24.5590   -7.0034 N   0  0  0  0  0  0
  1  3  1  0  0  0
  1  5  1  0  0  0
  1 10  2  0  0  0
  2  4  2  0  0  0
  2 17  1  0  0  0
  2  7  1  0  0  0
  3 11  1  0  0  0
  3 13  2  0  0  0
  4  9  1  0  0  0
  4 10  1  0  0  0
  5  8  2  0  0  0
  6  9  2  0  0  0
  6 12  1  0  0  0
  7 12  2  0  0  0
  8 14  1  0  0  0
  9 10  1  0  0  0
  9 13  1  0  0  0
 11 15  1  0  0  0
 11 14  2  0  0  0
 15 16  1  0  0  0
 17 22  1  0  0  0
 18 21  2  0  0  0
 18 22  1  0  0  0
 19 22  2  0  0  0
 19 23  1  0  0  0
 20 21  1  0  0  0
 20 23  2  0  0  0
M  END
> <s_m_entry_id>
722

> <s_m_entry_name>
10-myco-4_45_lig_gen_fit_add_gna.sdf.3

> <s_m_Source_Path>
C:\Users\maila\Downloads\mgr\myco-analysis

> <s_m_Source_File>
myco-10-var4-wzakresie.mae

> <i_m_Source_File_Index>
19

> <s_user_SMILES>
c1ccc(CC)c(=C2)c1=C([C]23=4)C3=C(C=CC4)Cc5cccnc5

> <minimizedAffinity>
-8.89701

> <minimizedRMSD>
0.34828

> <CNNscore>
0.4146679342

> <CNNaffinity>
6.3025913239

> <CNN_VS>
2.6134824753

> <CNNaffinity_variance>
0.0962527096

$$$$
c1cccc(c1C)C(=CC2)[C@@H](C=23)N3C(=C)[C@H](C4)OC[C@H]([C@H]45)N(C)[C@@H]5CC6=CC6
                    3D
 Schrodinger Suite 2021-1.
 28 33  0  0  1  0            999 V2000
  -22.8224   23.0414   -8.1612 C   0  0  0  0  0  0
  -22.3942   22.9683   -9.4163 C   0  0  0  0  0  0
  -19.7885   25.5313   -8.7221 C   0  0  2  0  0  0
  -20.1429   24.1886   -9.3759 C   0  0  0  0  0  0
  -22.2014   26.1505   -9.2630 C   0  0  0  0  0  0
  -22.1625   25.2647  -10.3527 O   0  0  0  0  0  0
  -19.9915   25.6322   -7.2171 C   0  0  2  0  0  0
  -20.2195   28.1168   -6.9715 C   0  0  0  0  0  0
  -20.8234   26.6393   -8.8059 C   0  0  1  0  0  0
  -21.5244   24.0432  -10.0358 C   0  0  2  0  0  0
  -20.8427   26.8353   -7.3391 N   0  0  1  0  0  0
  -18.7267   25.6620   -6.3153 C   0  0  0  0  0  0
  -16.6167   23.8639   -7.0283 C   0  0  0  0  0  0
  -17.4804   25.0129   -6.8339 C   0  0  0  0  0  0
  -16.2456   25.1321   -7.4842 C   0  0  0  0  0  0
  -22.5438   19.5135  -11.5677 C   0  0  0  0  0  0
  -23.7566   18.9533  -11.2679 C   0  0  0  0  0  0
  -23.7010   20.7589  -10.6179 C   0  0  0  0  0  0
  -24.6579   19.8978  -10.6068 C   0  0  0  0  0  0
  -22.7207   21.8247  -10.2165 N   0  0  0  0  0  0
  -22.5708   21.0263  -11.3707 C   0  0  1  0  0  0
  -20.0795   19.4670  -11.8208 C   0  0  0  0  0  0
  -18.8662   18.8720  -12.1509 C   0  0  0  0  0  0
  -21.2319   17.4958  -12.6137 C   0  0  0  0  0  0
  -18.8176   17.6348  -12.7631 C   0  0  0  0  0  0
  -19.9942   16.9553  -13.0014 C   0  0  0  0  0  0
  -22.4043   16.6042  -12.7604 C   0  0  0  0  0  0
  -21.2972   18.8004  -12.0328 C   0  0  0  0  0  0
  1  2  2  0  0  0
  2 20  1  0  0  0
  2 10  1  0  0  0
  3  4  1  0  0  0
  3  7  1  0  0  0
  3  9  1  0  0  0
  4 10  1  0  0  0
  5  6  1  0  0  0
  5  9  1  0  0  0
  6 10  1  0  0  0
  7 12  1  0  0  0
  7 11  1  0  0  0
  8 11  1  0  0  0
  9 11  1  0  0  0
 12 14  1  0  0  0
 13 14  2  0  0  0
 13 15  1  0  0  0
 14 15  1  0  0  0
 16 17  2  0  0  0
 16 21  1  0  0  0
 16 28  1  0  0  0
 17 19  1  0  0  0
 18 19  2  0  0  0
 18 20  1  0  0  0
 18 21  1  0  0  0
 20 21  1  0  0  0
 22 23  2  0  0  0
 22 28  1  0  0  0
 23 25  1  0  0  0
 24 26  1  0  0  0
 24 27  1  0  0  0
 24 28  2  0  0  0
 25 26  2  0  0  0
M  END
> <s_m_entry_id>
723

> <s_m_entry_name>
10-myco-4_45_lig_gen_fit_add_gna.sdf.9

> <s_m_Source_Path>
C:\Users\maila\Downloads\mgr\myco-analysis

> <s_m_Source_File>
myco-10-var4-wzakresie.mae

> <i_m_Source_File_Index>
20

> <s_user_SMILES>
c1cccc(c1C)C(=CC2)[C@@H](C=23)N3C(=C)[C@H](C4)OC[C@H]([C@H]45)N(C)[C@@H]5CC6=CC6

> <minimizedAffinity>
-8.32712

> <minimizedRMSD>
1.02187

> <CNNscore>
0.413859725

> <CNNaffinity>
6.3300600052

> <CNN_VS>
2.619756937

> <CNNaffinity_variance>
0.0314925723

$$$$
CC[C@](C123)(CC3)[C@H]2[C@@]1(O)C(=c(c45)nccc5)CC=4[C@H]6C=C(C6=7)C=NC7C
                    3D
 Schrodinger Suite 2021-1.
 27 33  0  0  1  0            999 V2000
  -21.7575   19.9571  -11.6733 C   0  0  0  0  0  0
  -23.0005   19.7526  -11.2586 C   0  0  0  0  0  0
  -25.1632   18.7834  -10.9946 C   0  0  0  0  0  0
  -22.5373   21.7965  -10.5115 C   0  0  0  0  0  0
  -23.4248   20.8249  -10.5074 C   0  0  0  0  0  0
  -24.6315   20.8415   -9.8935 N   0  0  0  0  0  0
  -25.4849   19.8035  -10.0911 C   0  0  0  0  0  0
  -21.4032   21.3722  -11.3566 C   0  0  0  0  0  0
  -23.8683   18.7066  -11.5252 C   0  0  0  0  0  0
  -21.4497   15.5259  -12.5251 C   0  0  0  0  0  0
  -19.4633   19.5397  -12.3202 C   0  0  0  0  0  0
  -19.1129   18.2469  -12.3847 C   0  0  0  0  0  0
  -18.2250   17.1431  -12.3343 C   0  0  0  0  0  0
  -18.9810   16.0841  -12.2022 N   0  0  0  0  0  0
  -20.8505   19.1227  -12.5251 C   0  0  1  0  0  0
  -20.4553   17.7580  -12.2976 C   0  0  0  0  0  0
  -20.3839   16.4584  -12.1647 C   0  0  0  0  0  0
  -22.1789   22.4765   -7.6363 C   0  0  0  0  0  0
  -22.7451   23.1898  -10.0024 C   0  0  2  0  0  0
  -21.0284   24.1523   -8.3042 C   0  0  1  0  0  0
  -21.4299   23.8962   -9.7423 C   0  0  2  0  0  0
  -22.4510   23.6585   -8.5795 C   0  0  3  0  0  0
  -20.7640   22.9493   -7.4153 C   0  0  0  0  0  0
  -23.6133   23.9794  -10.7658 O   0  0  0  0  0  0
  -24.5281   23.6873  -10.5208 H   0  0  0  0  0  0
  -21.0805   25.5439   -7.6207 C   0  0  0  0  0  0
  -19.8367   26.4058   -7.8304 C   0  0  0  0  0  0
  1  2  2  0  0  0
  1 15  1  0  0  0
  1  8  1  0  0  0
  2  5  1  0  0  0
  2  9  1  0  0  0
  3  7  1  0  0  0
  3  9  2  0  0  0
  4  5  2  0  0  0
  4 19  1  0  0  0
  4  8  1  0  0  0
  5  6  1  0  0  0
  6  7  2  0  0  0
 10 17  1  0  0  0
 11 12  2  0  0  0
 11 15  1  0  0  0
 12 13  1  0  0  0
 12 16  1  0  0  0
 13 14  2  0  0  0
 14 17  1  0  0  0
 15 16  1  0  0  0
 16 17  2  0  0  0
 18 22  1  0  0  0
 18 23  1  0  0  0
 19 21  1  0  0  0
 19 22  1  0  0  0
 19 24  1  0  0  0
 20 26  1  0  0  0
 20 21  1  0  0  0
 20 22  1  0  0  0
 20 23  1  0  0  0
 21 22  1  0  0  0
 24 25  1  0  0  0
 26 27  1  0  0  0
M  END
> <s_m_entry_id>
724

> <s_m_entry_name>
10-myco-4_46_lig_gen_fit_add_gna.sdf.4

> <s_m_Source_Path>
C:\Users\maila\Downloads\mgr\myco-analysis

> <s_m_Source_File>
myco-10-var4-wzakresie.mae

> <i_m_Source_File_Index>
21

> <s_user_SMILES>
CC[C@](C123)(CC3)[C@H]2[C@@]1(O)C(=c(c45)nccc5)CC=4[C@H]6C=C(C6=7)C=NC7C

> <minimizedAffinity>
-9.95851

> <minimizedRMSD>
0.97323

> <CNNscore>
0.4549162686

> <CNNaffinity>
6.8621635437

> <CNN_VS>
3.1217098236

> <CNNaffinity_variance>
0.1997931749

$$$$
C[C@H](C1)[C@@H]1CC2=CC=C(CC=C2)C3C=CC(C=34)=CC=C4C5=C[C@@H](CN)N=C5
                    3D
 Schrodinger Suite 2021-1.
 29 33  0  0  1  0            999 V2000
  -25.0762   20.4476  -10.9865 C   0  0  0  0  0  0
  -23.5343   22.1237  -10.8148 C   0  0  0  0  0  0
  -24.1617   18.5977  -11.6798 C   0  0  0  0  0  0
  -23.7458   20.7613  -11.2948 C   0  0  0  0  0  0
  -24.7372   22.5296  -10.3744 C   0  0  0  0  0  0
  -25.2847   19.0422  -11.1437 C   0  0  0  0  0  0
  -23.1566   19.6683  -11.7705 C   0  0  0  0  0  0
  -25.7283   21.4612  -10.4881 C   0  0  0  0  0  0
  -22.3227   22.6596  -10.1925 C   0  0  0  0  0  0
  -21.1398   24.7227   -8.4471 C   0  0  0  0  0  0
  -22.1628   22.3975   -8.9181 C   0  0  0  0  0  0
  -21.2063   25.0237   -9.7160 C   0  0  0  0  0  0
  -21.3142   23.8789   -7.2768 C   0  0  0  0  0  0
  -21.8453   22.6660   -7.5312 C   0  0  0  0  0  0
  -21.7921   24.0104  -10.7179 C   0  0  0  0  0  0
  -20.9710   24.3065   -5.8746 C   0  0  0  0  0  0
  -18.4999   24.4204   -5.1045 C   0  0  0  0  0  0
  -19.2566   25.5461   -4.4069 C   0  0  1  0  0  0
  -18.5139   26.8800   -4.3337 C   0  0  0  0  0  0
  -19.6638   25.1112   -5.8091 C   0  0  2  0  0  0
  -21.2513   18.2012  -12.2777 C   0  0  0  0  0  0
  -21.7571   19.4101  -12.1224 C   0  0  0  0  0  0
  -20.6725   20.3461  -12.2613 C   0  0  0  0  0  0
  -19.7681   18.3038  -12.2724 C   0  0  2  0  0  0
  -19.5447   19.7282  -12.4411 N   0  0  0  0  0  0
  -19.0008   17.3979  -13.2473 C   0  0  0  0  0  0
  -19.1283   15.9895  -12.8782 N   0  0  0  0  0  0
  -18.9259   15.8903  -11.8602 H   0  0  0  0  0  0
  -20.1171   15.6950  -13.0039 H   0  0  0  0  0  0
  1  4  1  0  0  0
  1  6  2  0  0  0
  1  8  1  0  0  0
  2  9  1  0  0  0
  2  4  2  0  0  0
  2  5  1  0  0  0
  3  6  1  0  0  0
  3  7  2  0  0  0
  4  7  1  0  0  0
  5  8  2  0  0  0
  7 22  1  0  0  0
  9 11  2  0  0  0
  9 15  1  0  0  0
 10 12  2  0  0  0
 10 13  1  0  0  0
 11 14  1  0  0  0
 12 15  1  0  0  0
 13 16  1  0  0  0
 13 14  2  0  0  0
 16 20  1  0  0  0
 17 18  1  0  0  0
 17 20  1  0  0  0
 18 19  1  0  0  0
 18 20  1  0  0  0
 21 22  2  0  0  0
 21 24  1  0  0  0
 22 23  1  0  0  0
 23 25  2  0  0  0
 24 25  1  0  0  0
 24 26  1  0  0  0
 26 27  1  0  0  0
 27 28  1  0  0  0
 27 29  1  0  0  0
M  END
> <s_m_entry_id>
725

> <s_m_entry_name>
10-myco-4_47_lig_gen_fit_add_gna.sdf.4

> <s_m_Source_Path>
C:\Users\maila\Downloads\mgr\myco-analysis

> <s_m_Source_File>
myco-10-var4-wzakresie.mae

> <i_m_Source_File_Index>
22

> <s_user_SMILES>
C[C@H](C1)[C@@H]1CC2=CC=C(CC=C2)C3C=CC(C=34)=CC=C4C5=C[C@@H](CN)N=C5

> <minimizedAffinity>
-8.50805

> <minimizedRMSD>
0.50606

> <CNNscore>
0.5076594353

> <CNNaffinity>
6.8892564774

> <CNN_VS>
3.4973959923

> <CNNaffinity_variance>
0.2356312275

$$$$
NC(O)=C=C(C)c1cc(N)cc(=C2)c1=[C]23c4c3cc(cc4O)CCC(C)=CC=C
                    3D
 Schrodinger Suite 2021-1.
 35 38  0  0  1  0            999 V2000
  -22.9794   19.9269  -11.3656 C   0  0  0  0  0  0
  -25.3283   19.7389  -10.4871 C   0  0  0  0  0  0
  -24.4655   21.8455  -10.8945 C   0  0  0  0  0  0
  -20.7421   24.1243   -7.7261 C   0  0  0  0  0  0
  -22.7162   22.1390   -9.9645 C   0  0  0  0  0  0
  -26.2536   18.9482   -9.7499 N   0  0  0  0  0  0
  -20.7339   24.9540   -8.9326 C   0  0  0  0  0  0
  -24.0639   22.6193   -9.8323 C   0  0  0  0  0  0
  -21.9291   23.3032   -9.9864 C   0  0  0  0  0  0
  -23.9938   19.1832  -10.8113 C   0  0  0  0  0  0
  -21.9472   22.4408   -8.7979 C   0  0  0  0  0  0
  -20.8765   21.8855   -6.6510 O   0  0  0  0  0  0
  -21.3341   24.4988  -10.1733 C   0  0  0  0  0  0
  -21.2083   22.7636   -7.6911 C   0  0  0  0  0  0
  -23.0240   21.4712  -11.2393 C   0  0  0  0  0  0
  -25.6284   21.0050  -10.8013 C   0  0  0  0  0  0
  -26.0385   17.9494   -9.5140 H   0  0  0  0  0  0
  -26.0437   17.9368   -9.5617 H   0  0  0  0  0  0
  -19.8788   21.9176   -6.3952 H   0  0  0  0  0  0
  -22.7264   17.9225  -12.9854 C   0  0  0  0  0  0
  -19.6510   18.5862  -12.4535 C   0  0  0  0  0  0
  -20.8687   19.0892  -12.4462 C   0  0  0  0  0  0
  -19.4528   17.2347  -12.0734 N   0  0  0  0  0  0
  -22.1690   19.2147  -12.4534 C   0  0  0  0  0  0
  -18.5227   19.3718  -12.6144 O   0  0  0  0  0  0
  -18.4930   16.9450  -11.8049 H   0  0  0  0  0  0
  -20.2700   16.6079  -11.8641 H   0  0  0  0  0  0
  -18.6220   20.3714  -12.6605 H   0  0  0  0  0  0
  -20.2546   26.3758   -8.8642 C   0  0  0  0  0  0
  -19.1718   26.7027   -7.8020 C   0  0  0  0  0  0
  -17.0691   25.2844   -7.9557 C   0  0  0  0  0  0
  -17.7631   26.3909   -8.2905 C   0  0  0  0  0  0
  -17.1187   27.3948   -9.1997 C   0  0  0  0  0  0
  -17.3727   23.0027   -7.1451 C   0  0  0  0  0  0
  -17.4708   24.2982   -6.9343 C   0  0  0  0  0  0
  1 10  2  0  0  0
  1 15  1  0  0  0
  1 24  1  0  0  0
  2  6  1  0  0  0
  2 10  1  0  0  0
  2 16  2  0  0  0
  3  8  2  0  0  0
  3 15  1  0  0  0
  3 16  1  0  0  0
  4  7  2  0  0  0
  4 14  1  0  0  0
  5  8  1  0  0  0
  5  9  1  0  0  0
  5 11  1  0  0  0
  5 15  2  0  0  0
  6 17  1  0  0  0
  6 18  1  0  0  0
  7 13  1  0  0  0
  7 29  1  0  0  0
  9 11  1  0  0  0
  9 13  2  0  0  0
 11 14  2  0  0  0
 12 14  1  0  0  0
 12 19  1  0  0  0
 20 24  1  0  0  0
 21 22  2  0  0  0
 21 23  1  0  0  0
 21 25  1  0  0  0
 22 24  2  0  0  0
 23 26  1  0  0  0
 23 27  1  0  0  0
 25 28  1  0  0  0
 29 30  1  0  0  0
 30 32  1  0  0  0
 31 32  2  0  0  0
 31 35  1  0  0  0
 32 33  1  0  0  0
 34 35  2  0  0  0
M  END
> <s_m_entry_id>
726

> <s_m_entry_name>
10-myco-4_47_lig_gen_fit_add_gna.sdf.9

> <s_m_Source_Path>
C:\Users\maila\Downloads\mgr\myco-analysis

> <s_m_Source_File>
myco-10-var4-wzakresie.mae

> <i_m_Source_File_Index>
23

> <s_user_SMILES>
NC(O)=C=C(C)c1cc(N)cc(=C2)c1=[C]23c4c3cc(cc4O)CCC(C)=CC=C

> <minimizedAffinity>
-8.96873

> <minimizedRMSD>
0.68672

> <CNNscore>
0.4479934573

> <CNNaffinity>
6.6869826317

> <CNN_VS>
2.9957244396

> <CNNaffinity_variance>
0.18834728

$$$$
c1cc(N)cc(c12)cccc2CCC3=NC(C)=C(C3=4)C=C(C4)C5=C(Cl)C=C5
                    3D
 Schrodinger Suite 2021-1.
 29 33  0  0  1  0            999 V2000
  -22.0276   23.4091  -10.3427 C   0  0  0  0  0  0
  -21.9697   19.1665  -12.0840 C   0  0  0  0  0  0
  -25.3338   19.7809   -9.8416 C   0  0  0  0  0  0
  -23.2558   19.0078  -11.8321 C   0  0  0  0  0  0
  -21.6160   20.6066  -12.0353 C   0  0  0  0  0  0
  -23.9914   21.9357  -10.0136 N   0  0  0  0  0  0
  -22.7073   21.2709  -11.7297 C   0  0  0  0  0  0
  -23.7498   20.3394  -11.5735 C   0  0  0  0  0  0
  -24.5101   20.7325  -10.5900 C   0  0  0  0  0  0
  -22.9311   22.2582  -10.6837 C   0  0  0  0  0  0
  -21.1797   18.1451  -12.7660 C   0  0  0  0  0  0
  -20.6571   16.9382  -12.4555 C   0  0  0  0  0  0
  -19.8598   18.4954  -13.0661 C   0  0  0  0  0  0
  -19.5089   17.6616  -12.0896 C   0  0  0  0  0  0
  -20.3823   15.4613  -13.3545 Cl  0  0  0  0  0  0
  -22.2291   24.0068   -8.9375 C   0  0  0  0  0  0
  -17.9546   24.4949   -7.9618 C   0  0  0  0  0  0
  -22.1717   22.1647   -7.2417 C   0  0  0  0  0  0
  -17.3808   23.7671   -6.9152 C   0  0  0  0  0  0
  -20.1076   23.4098   -7.5793 C   0  0  0  0  0  0
  -21.5752   21.4309   -6.2198 C   0  0  0  0  0  0
  -20.2613   21.6920   -5.8470 C   0  0  0  0  0  0
  -19.5095   22.6524   -6.5352 C   0  0  0  0  0  0
  -18.1594   22.8475   -6.2043 C   0  0  0  0  0  0
  -21.4830   23.2043   -7.8859 C   0  0  0  0  0  0
  -16.0019   23.9510   -6.5832 N   0  0  0  0  0  0
  -19.3000   24.3210   -8.2921 C   0  0  0  0  0  0
  -15.5614   23.4086   -5.8070 H   0  0  0  0  0  0
  -15.4106   24.6306   -7.1119 H   0  0  0  0  0  0
  1 16  1  0  0  0
  1 10  1  0  0  0
  2 11  1  0  0  0
  2  4  2  0  0  0
  2  5  1  0  0  0
  3  9  1  0  0  0
  4  8  1  0  0  0
  5  7  2  0  0  0
  6  9  1  0  0  0
  6 10  2  0  0  0
  7  8  1  0  0  0
  7 10  1  0  0  0
  8  9  2  0  0  0
 11 12  2  0  0  0
 11 13  1  0  0  0
 12 14  1  0  0  0
 12 15  1  0  0  0
 13 14  2  0  0  0
 16 25  1  0  0  0
 17 19  2  0  0  0
 17 27  1  0  0  0
 18 21  1  0  0  0
 18 25  2  0  0  0
 19 24  1  0  0  0
 19 26  1  0  0  0
 20 23  1  0  0  0
 20 25  1  0  0  0
 20 27  2  0  0  0
 21 22  2  0  0  0
 22 23  1  0  0  0
 23 24  2  0  0  0
 26 28  1  0  0  0
 26 29  1  0  0  0
M  END
> <s_m_entry_id>
727

> <s_m_entry_name>
10-myco-4_47_lig_gen_fit_add_gna.sdf.10

> <s_m_Source_Path>
C:\Users\maila\Downloads\mgr\myco-analysis

> <s_m_Source_File>
myco-10-var4-wzakresie.mae

> <i_m_Source_File_Index>
24

> <s_user_SMILES>
c1cc(N)cc(c12)cccc2CCC3=NC(C)=C(C3=4)C=C(C4)C5=C(Cl)C=C5

> <minimizedAffinity>
-9.4591

> <minimizedRMSD>
1.78481

> <CNNscore>
0.6076244116

> <CNNaffinity>
6.5593957901

> <CNN_VS>
3.9856491089

> <CNNaffinity_variance>
0.2039969862

$$$$
OCC[C@H](O)c(c(C)c1)cc(c12)c(ccc2C)-c(c3C)ccc(c3)[C@@H]4[C@H]5C6(C457)[C@H]7C6
                    3D
 Schrodinger Suite 2021-1.
 32 38  0  0  1  0            999 V2000
  -23.4705  -22.1106   10.5282 C   0  0  0  0  0  0
  -23.0949  -20.9263   11.2407 C   0  0  0  0  0  0
  -23.6551  -18.6291   11.8361 C   0  0  0  0  0  0
  -25.7003  -21.2215   10.2106 C   0  0  0  0  0  0
  -21.7931  -20.6998   11.7612 C   0  0  0  0  0  0
  -24.0253  -19.8526   11.2823 C   0  0  0  0  0  0
  -21.3672  -19.3803   12.1437 C   0  0  0  0  0  0
  -24.7794  -22.2381   10.0673 C   0  0  0  0  0  0
  -22.0808  -16.9771   12.7089 C   0  0  0  0  0  0
  -25.2956  -19.9836   10.6902 C   0  0  0  0  0  0
  -22.3518  -18.3648   12.2260 C   0  0  0  0  0  0
  -26.1547  -18.7848   10.4149 C   0  0  0  0  0  0
  -22.5652  -23.2129   10.1093 C   0  0  0  0  0  0
  -21.3219  -25.5928    9.2229 C   0  0  0  0  0  0
  -21.8276  -25.4867   10.5188 C   0  0  0  0  0  0
  -21.5039  -24.5309    8.3368 C   0  0  0  0  0  0
  -22.1480  -23.3568    8.7503 C   0  0  0  0  0  0
  -22.4228  -24.3073   10.9656 C   0  0  0  0  0  0
  -22.5069  -22.3734    7.6700 C   0  0  0  0  0  0
  -18.8275  -27.6024    7.2973 C   0  0  3  0  0  0
  -19.0188  -29.1033    7.4337 C   0  0  0  0  0  0
  -20.1491  -26.8792    7.3479 C   0  0  3  0  0  0
  -20.0836  -28.2724    6.7486 C   0  0  1  0  0  0
  -19.2209  -26.8508    8.5570 C   0  0  1  0  0  0
  -20.7278  -26.8936    8.7572 C   0  0  1  0  0  0
  -19.0868  -19.9730   11.8118 O   0  0  0  0  0  0
  -19.9042  -19.1101   12.5202 C   0  0  1  0  0  0
  -18.2255  -19.9183   12.2867 H   0  0  0  0  0  0
  -19.2945  -17.7051   12.2650 C   0  0  0  0  0  0
  -17.8614  -16.0007   13.0197 O   0  0  0  0  0  0
  -18.4339  -17.2006   13.4020 C   0  0  0  0  0  0
  -18.3496  -15.3151   13.5279 H   0  0  0  0  0  0
  1 13  1  0  0  0
  1  2  2  0  0  0
  1  8  1  0  0  0
  2  5  1  0  0  0
  2  6  1  0  0  0
  3  6  1  0  0  0
  3 11  2  0  0  0
  4  8  2  0  0  0
  4 10  1  0  0  0
  5  7  2  0  0  0
  6 10  2  0  0  0
  7 27  1  0  0  0
  7 11  1  0  0  0
  9 11  1  0  0  0
 10 12  1  0  0  0
 13 17  2  0  0  0
 13 18  1  0  0  0
 14 15  1  0  0  0
 14 16  2  0  0  0
 14 25  1  0  0  0
 15 18  2  0  0  0
 16 17  1  0  0  0
 17 19  1  0  0  0
 20 21  1  0  0  0
 20 22  1  0  0  0
 20 23  1  0  0  0
 20 24  1  0  0  0
 21 23  1  0  0  0
 22 23  1  0  0  0
 22 24  1  0  0  0
 22 25  1  0  0  0
 24 25  1  0  0  0
 26 27  1  0  0  0
 26 28  1  0  0  0
 27 29  1  0  0  0
 29 31  1  0  0  0
 30 31  1  0  0  0
 30 32  1  0  0  0
M  END
> <s_m_entry_id>
728

> <s_m_entry_name>
10-myco-4_48_lig_gen_fit_add_gna.sdf.6

> <s_m_Source_Path>
C:\Users\maila\Downloads\mgr\myco-analysis

> <s_m_Source_File>
myco-10-var4-wzakresie.mae

> <i_m_Source_File_Index>
25

> <s_user_SMILES>
OCC[C@H](O)c(c(C)c1)cc(c12)c(ccc2C)-c(c3C)ccc(c3)[C@@H]4[C@H]5C6(C457)[C@H]7C6

> <minimizedAffinity>
-10.61492

> <minimizedRMSD>
1.38555

> <CNNscore>
0.8082818389

> <CNNaffinity>
6.821975708

> <CNN_VS>
5.5140790939

> <CNNaffinity_variance>
0.0669356659

$$$$
C1CC1(C)CCCCc2c(C)cc(c(c2)NO)C[C@H]3C=CC=C3c4c(c45)cc(N)c5C
                    3D
 Schrodinger Suite 2021-1.
 35 39  0  0  1  0            999 V2000
  -22.8250  -23.2858    8.8173 C   0  0  0  0  0  0
  -23.0002  -24.6304   10.8342 C   0  0  0  0  0  0
  -22.4452  -25.7326   10.1618 C   0  0  0  0  0  0
  -22.1512  -24.3526    8.2056 C   0  0  0  0  0  0
  -23.1363  -23.3710   10.2124 C   0  0  0  0  0  0
  -21.8975  -25.5467    8.8787 C   0  0  0  0  0  0
  -22.4993  -27.0989   10.7932 C   0  0  0  0  0  0
  -22.9363  -22.1900    6.6521 O   0  0  0  0  0  0
  -23.2906  -22.2289    7.9610 N   0  0  0  0  0  0
  -22.1850  -21.5476    6.6062 H   0  0  0  0  0  0
  -24.1406  -21.6913    8.2157 H   0  0  0  0  0  0
  -20.9381  -26.5328    8.2452 C   0  0  0  0  0  0
  -19.5092  -26.3371    8.8075 C   0  0  0  0  0  0
  -18.4359  -26.2644    7.7070 C   0  0  0  0  0  0
  -18.6986  -25.1713    6.6490 C   0  0  0  0  0  0
  -16.5505  -23.6306    6.8863 C   0  0  0  0  0  0
  -18.8645  -22.6072    6.4596 C   0  0  0  0  0  0
  -18.8072  -22.8763    7.9569 C   0  0  0  0  0  0
  -18.0715  -23.8010    6.9945 C   0  0  0  0  0  0
  -23.3138  -22.1888   11.1792 C   0  0  0  0  0  0
  -25.1604  -20.7058   10.3029 C   0  0  0  0  0  0
  -24.6027  -18.9215   11.5681 C   0  0  0  0  0  0
  -23.5095  -19.6691   11.5584 C   0  0  0  0  0  0
  -25.6381  -19.5822   10.8033 C   0  0  0  0  0  0
  -23.6970  -20.8239   10.6054 C   0  0  1  0  0  0
  -19.5098  -19.1682   12.2172 C   0  0  0  0  0  0
  -19.3893  -17.8010   12.6948 C   0  0  0  0  0  0
  -21.4779  -18.0620   12.4335 C   0  0  0  0  0  0
  -22.2119  -19.1299   11.9857 C   0  0  0  0  0  0
  -20.9032  -15.6440   12.8986 C   0  0  0  0  0  0
  -18.1193  -17.1790   12.8880 N   0  0  0  0  0  0
  -20.6538  -17.0988   12.8671 C   0  0  0  0  0  0
  -20.8447  -19.2148   12.0755 C   0  0  0  0  0  0
  -18.0453  -16.2047   13.2477 H   0  0  0  0  0  0
  -17.2405  -17.7063   12.6971 H   0  0  0  0  0  0
  1  4  2  0  0  0
  1  5  1  0  0  0
  1  9  1  0  0  0
  2  3  1  0  0  0
  2  5  2  0  0  0
  3  6  2  0  0  0
  3  7  1  0  0  0
  4  6  1  0  0  0
  5 20  1  0  0  0
  6 12  1  0  0  0
  8  9  1  0  0  0
  8 10  1  0  0  0
  9 11  1  0  0  0
 12 13  1  0  0  0
 13 14  1  0  0  0
 14 15  1  0  0  0
 15 19  1  0  0  0
 16 19  1  0  0  0
 17 18  1  0  0  0
 17 19  1  0  0  0
 18 19  1  0  0  0
 20 25  1  0  0  0
 21 24  2  0  0  0
 21 25  1  0  0  0
 22 23  2  0  0  0
 22 24  1  0  0  0
 23 29  1  0  0  0
 23 25  1  0  0  0
 26 27  2  0  0  0
 26 33  1  0  0  0
 27 31  1  0  0  0
 27 32  1  0  0  0
 28 29  1  0  0  0
 28 32  2  0  0  0
 28 33  1  0  0  0
 29 33  2  0  0  0
 30 32  1  0  0  0
 31 34  1  0  0  0
 31 35  1  0  0  0
M  END
> <s_m_entry_id>
729

> <s_m_entry_name>
10-myco-4_50_lig_gen_fit_add_gna.sdf.3

> <s_m_Source_Path>
C:\Users\maila\Downloads\mgr\myco-analysis

> <s_m_Source_File>
myco-10-var4-wzakresie.mae

> <i_m_Source_File_Index>
26

> <s_user_SMILES>
C1CC1(C)CCCCc2c(C)cc(c(c2)NO)C[C@H]3C=CC=C3c4c(c45)cc(N)c5C

> <minimizedAffinity>
-9.03344

> <minimizedRMSD>
0.72409

> <CNNscore>
0.5753462911

> <CNNaffinity>
7.0826125145

> <CNN_VS>
4.0749549866

> <CNNaffinity_variance>
0.148514688

$$$$
C1=C(N)[C]12=C(C)C=C3C4C(=C3C2)C=4CCC(C=C5)C=C5CC(=C6)C=C6CC
                    3D
 Schrodinger Suite 2021-1.
 29 34  0  0  1  0            999 V2000
  -22.9358  -19.8912   11.8803 C   0  0  0  0  0  0
  -22.9838  -21.1900   11.6077 C   0  0  0  0  0  0
  -20.8611  -16.7147   12.5409 C   0  0  0  0  0  0
  -19.6259  -19.1708   12.5366 C   0  0  0  0  0  0
  -22.2306  -17.3682   12.2680 C   0  0  0  0  0  0
  -21.0921  -16.1445   13.9075 C   0  0  0  0  0  0
  -21.8220  -20.5678   11.9217 C   0  0  0  0  0  0
  -19.5321  -17.6473   12.5020 C   0  0  0  0  0  0
  -20.9643  -19.6355   12.2241 C   0  0  0  0  0  0
  -22.2826  -18.6639   12.1945 C   0  0  0  0  0  0
  -17.3198  -17.4615   10.8668 N   0  0  0  0  0  0
  -18.2691  -17.3253   11.9323 C   0  0  0  0  0  0
  -18.5064  -17.1254   13.3368 C   0  0  0  0  0  0
  -17.4412  -18.2225   10.1654 H   0  0  0  0  0  0
  -16.4098  -16.9769   10.8325 H   0  0  0  0  0  0
  -23.6993  -22.4083   11.1280 C   0  0  0  0  0  0
  -23.2347  -22.7527    9.7027 C   0  0  0  0  0  0
  -21.5865  -24.6666    9.9643 C   0  0  0  0  0  0
  -20.9447  -25.2859    8.9851 C   0  0  0  0  0  0
  -21.2555  -23.1753    8.2306 C   0  0  0  0  0  0
  -20.7243  -24.3415    7.9039 C   0  0  0  0  0  0
  -21.7716  -23.2159    9.6317 C   0  0  0  0  0  0
  -19.8562  -24.5629    6.7031 C   0  0  0  0  0  0
  -18.8273  -23.4781    6.6402 C   0  0  0  0  0  0
  -17.5462  -21.9798    6.7513 C   0  0  0  0  0  0
  -17.6889  -23.0876    7.4654 C   0  0  0  0  0  0
  -18.6833  -22.3722    5.9232 C   0  0  0  0  0  0
  -16.7454  -19.9339    5.5782 C   0  0  0  0  0  0
  -16.6708  -20.7713    6.8494 C   0  0  0  0  0  0
  1  2  2  0  0  0
  1  7  1  0  0  0
  1 10  1  0  0  0
  2 16  1  0  0  0
  2  7  1  0  0  0
  3  5  1  0  0  0
  3  6  1  0  0  0
  3  8  2  0  0  0
  4  8  1  0  0  0
  4  9  1  0  0  0
  5 10  2  0  0  0
  7  9  2  0  0  0
  8 12  1  0  0  0
  8 13  1  0  0  0
  9 10  1  0  0  0
 11 12  1  0  0  0
 11 14  1  0  0  0
 11 15  1  0  0  0
 12 13  2  0  0  0
 16 17  1  0  0  0
 17 22  1  0  0  0
 18 19  2  0  0  0
 18 22  1  0  0  0
 19 21  1  0  0  0
 20 21  2  0  0  0
 20 22  1  0  0  0
 21 23  1  0  0  0
 23 24  1  0  0  0
 24 26  2  0  0  0
 24 27  1  0  0  0
 25 26  1  0  0  0
 25 29  1  0  0  0
 25 27  2  0  0  0
 28 29  1  0  0  0
M  END
> <s_m_entry_id>
730

> <s_m_entry_name>
10-myco-4_50_lig_gen_fit_add_gna.sdf.6

> <s_m_Source_Path>
C:\Users\maila\Downloads\mgr\myco-analysis

> <s_m_Source_File>
myco-10-var4-wzakresie.mae

> <i_m_Source_File_Index>
27

> <s_user_SMILES>
C1=C(N)[C]12=C(C)C=C3C4C(=C3C2)C=4CCC(C=C5)C=C5CC(=C6)C=C6CC

> <minimizedAffinity>
-9.71333

> <minimizedRMSD>
0.46214

> <CNNscore>
0.5306053162

> <CNNaffinity>
6.8326215744

> <CNN_VS>
3.6254253387

> <CNNaffinity_variance>
0.1137652546

$$$$
CCC1=CCC(C2)=[C]12Cc(cc3)ccc3CC=4C(C45)C(=C5)c(cc6)cc(O)c6CN
                    3D
 Schrodinger Suite 2021-1.
 33 38  0  0  1  0            999 V2000
  -23.4060  -19.1854   11.7544 C   0  0  0  0  0  0
  -24.6924  -18.7382   11.3739 C   0  0  0  0  0  0
  -24.3252  -21.1289   10.1299 C   0  0  0  0  0  0
  -24.6069  -19.8856   10.7132 C   0  0  0  0  0  0
  -23.6274  -20.6579   11.1867 C   0  0  0  0  0  0
  -19.8051  -18.8741   12.5928 C   0  0  0  0  0  0
  -22.0840  -17.2543   12.5879 C   0  0  0  0  0  0
  -21.0296  -19.4072   12.2365 C   0  0  0  0  0  0
  -22.1816  -18.6108   12.2777 C   0  0  0  0  0  0
  -20.8467  -16.7247   12.9662 C   0  0  0  0  0  0
  -19.7318  -17.5761   13.0776 C   0  0  0  0  0  0
  -20.7165  -15.3625   13.2024 O   0  0  0  0  0  0
  -21.4693  -14.7145   13.0095 H   0  0  0  0  0  0
  -17.9447  -15.9842   13.2122 N   0  0  0  0  0  0
  -18.4973  -17.1710   13.8009 C   0  0  0  0  0  0
  -17.1439  -15.7597   13.8363 H   0  0  0  0  0  0
  -17.5564  -16.2565   12.2799 H   0  0  0  0  0  0
  -24.5440  -22.2023    9.1612 C   0  0  0  0  0  0
  -22.7601  -23.2380    7.7034 C   0  0  0  0  0  0
  -21.6539  -24.0726    7.5247 C   0  0  0  0  0  0
  -22.6443  -23.5889   10.0919 C   0  0  0  0  0  0
  -23.2893  -23.0202    8.9839 C   0  0  0  0  0  0
  -21.5542  -24.4442    9.9124 C   0  0  0  0  0  0
  -21.0631  -24.7248    8.6259 C   0  0  0  0  0  0
  -19.9588  -25.7609    8.5025 C   0  0  0  0  0  0
  -16.6746  -24.8351    7.3204 C   0  0  0  0  0  0
  -18.0263  -26.7829    7.1815 C   0  0  0  0  0  0
  -17.9282  -24.4123    7.4526 C   0  0  0  0  0  0
  -18.9244  -25.5449    7.3629 C   0  0  0  0  0  0
  -18.9628  -26.3673    6.0685 C   0  0  0  0  0  0
  -16.5832  -26.2976    7.0885 C   0  0  0  0  0  0
  -18.5907  -22.2014    6.3538 C   0  0  0  0  0  0
  -18.2261  -22.9412    7.6331 C   0  0  0  0  0  0
  1  9  1  0  0  0
  1  2  2  0  0  0
  1  5  1  0  0  0
  2  4  1  0  0  0
  3 18  1  0  0  0
  3  4  2  0  0  0
  3  5  1  0  0  0
  4  5  1  0  0  0
  6  8  2  0  0  0
  6 11  1  0  0  0
  7  9  2  0  0  0
  7 10  1  0  0  0
  8  9  1  0  0  0
 10 11  2  0  0  0
 10 12  1  0  0  0
 11 15  1  0  0  0
 12 13  1  0  0  0
 14 15  1  0  0  0
 14 16  1  0  0  0
 14 17  1  0  0  0
 18 22  1  0  0  0
 19 20  2  0  0  0
 19 22  1  0  0  0
 20 24  1  0  0  0
 21 22  2  0  0  0
 21 23  1  0  0  0
 23 24  2  0  0  0
 24 25  1  0  0  0
 25 29  1  0  0  0
 26 28  2  0  0  0
 26 31  1  0  0  0
 27 29  2  0  0  0
 27 30  1  0  0  0
 27 31  1  0  0  0
 28 29  1  0  0  0
 28 33  1  0  0  0
 29 30  1  0  0  0
 32 33  1  0  0  0
M  END
> <s_m_entry_id>
731

> <s_m_entry_name>
10-myco-4_50_lig_gen_fit_add_gna.sdf.7

> <s_m_Source_Path>
C:\Users\maila\Downloads\mgr\myco-analysis

> <s_m_Source_File>
myco-10-var4-wzakresie.mae

> <i_m_Source_File_Index>
28

> <s_user_SMILES>
CCC1=CCC(C2)=[C]12Cc(cc3)ccc3CC=4C(C45)C(=C5)c(cc6)cc(O)c6CN

> <minimizedAffinity>
-9.55494

> <minimizedRMSD>
1.14433

> <CNNscore>
0.5561631322

> <CNNaffinity>
6.7757821083

> <CNN_VS>
3.7684402466

> <CNNaffinity_variance>
0.076431714

$$$$
CCC(C)=C=CCC1=C[C@H](C=C1)CCc(ccn2)cc2[C@@H](C)c3ccccc3
                    3D
 Schrodinger Suite 2021-1.
 28 30  0  0  1  0            999 V2000
  -25.8873  -19.5623   10.8801 C   0  0  0  0  0  0
  -23.7104  -19.2513   11.8651 C   0  0  0  0  0  0
  -23.3706  -20.5822   11.4985 C   0  0  0  0  0  0
  -24.3222  -21.3751   10.7640 C   0  0  0  0  0  0
  -25.5774  -20.8381   10.4729 C   0  0  0  0  0  0
  -24.9643  -18.8258   11.5281 N   0  0  0  0  0  0
  -22.7315  -18.1055   12.2720 C   0  0  1  0  0  0
  -23.4941  -17.0460   13.0501 C   0  0  0  0  0  0
  -19.3568  -16.7676   13.0924 C   0  0  0  0  0  0
  -20.4732  -19.2029   12.2746 C   0  0  0  0  0  0
  -20.6777  -17.0716   13.3648 C   0  0  0  0  0  0
  -21.3149  -18.2393   12.8370 C   0  0  0  0  0  0
  -19.1252  -18.8991   12.0507 C   0  0  0  0  0  0
  -18.6156  -17.6440   12.3477 C   0  0  0  0  0  0
  -24.1225  -22.8010   10.2557 C   0  0  0  0  0  0
  -22.9648  -23.5625   10.8726 C   0  0  0  0  0  0
  -21.4396  -24.9366    9.5259 C   0  0  0  0  0  0
  -22.0495  -22.9310    8.5869 C   0  0  0  0  0  0
  -21.4968  -25.0815    8.2119 C   0  0  0  0  0  0
  -21.8593  -23.8179    7.6199 C   0  0  0  0  0  0
  -21.7747  -23.5518    9.9153 C   0  0  1  0  0  0
  -22.2070  -23.6024    6.1801 C   0  0  0  0  0  0
  -19.9260  -22.7413    5.8719 C   0  0  0  0  0  0
  -21.0646  -23.0996    5.3437 C   0  0  0  0  0  0
  -18.7700  -22.4130    6.3883 C   0  0  0  0  0  0
  -18.4448  -22.8910    7.7678 C   0  0  0  0  0  0
  -17.8192  -20.2527    5.5430 C   0  0  0  0  0  0
  -17.7126  -21.7748    5.5240 C   0  0  0  0  0  0
  1  5  2  0  0  0
  1  6  1  0  0  0
  2  3  1  0  0  0
  2  7  1  0  0  0
  2  6  2  0  0  0
  3  4  2  0  0  0
  4  5  1  0  0  0
  4 15  1  0  0  0
  7 12  1  0  0  0
  7  8  1  0  0  0
  9 11  2  0  0  0
  9 14  1  0  0  0
 10 12  2  0  0  0
 10 13  1  0  0  0
 11 12  1  0  0  0
 13 14  2  0  0  0
 15 16  1  0  0  0
 16 21  1  0  0  0
 17 19  2  0  0  0
 17 21  1  0  0  0
 18 20  2  0  0  0
 18 21  1  0  0  0
 19 20  1  0  0  0
 20 22  1  0  0  0
 22 24  1  0  0  0
 23 24  2  0  0  0
 23 25  2  0  0  0
 25 28  1  0  0  0
 25 26  1  0  0  0
 27 28  1  0  0  0
M  END
> <s_m_entry_id>
732

> <s_m_entry_name>
10-myco-4_50_lig_gen_fit_add_gna.sdf.10

> <s_m_Source_Path>
C:\Users\maila\Downloads\mgr\myco-analysis

> <s_m_Source_File>
myco-10-var4-wzakresie.mae

> <i_m_Source_File_Index>
29

> <s_user_SMILES>
CCC(C)=C=CCC1=C[C@H](C=C1)CCc(ccn2)cc2[C@@H](C)c3ccccc3

> <minimizedAffinity>
-8.61007

> <minimizedRMSD>
1.38592

> <CNNscore>
0.3096855581

> <CNNaffinity>
6.3116707802

> <CNN_VS>
1.9546332359

> <CNNaffinity_variance>
0.2545774579

$$$$
C/C=C\C=C/c(ccc1)cc(c1c(c2)ccc3c24)[nH]c4c(ccc3)C5=NCC=C5[C@@H]6[C@H]([C@H]67)C7
                    3D
 Schrodinger Suite 2021-1.
 34 40  0  0  1  0            999 V2000
  -24.7731  -18.7789   11.5339 C   0  0  0  0  0  0
  -21.4344  -22.8954    9.8424 C   0  0  0  0  0  0
  -23.4616  -18.8466   12.1119 C   0  0  0  0  0  0
  -20.4372  -24.2700    7.4826 C   0  0  0  0  0  0
  -21.5738  -24.7733    7.5026 C   0  0  0  0  0  0
  -23.8977  -21.4213   10.9315 C   0  0  0  0  0  0
  -24.3866  -22.4709    8.5229 C   0  0  0  0  0  0
  -24.7136  -20.6738   10.1168 C   0  0  0  0  0  0
  -24.0859  -22.7680   10.8821 C   0  0  0  0  0  0
  -20.0607  -22.9190    9.3225 C   0  0  0  0  0  0
  -22.5876  -24.7146    8.4126 C   0  0  0  0  0  0
  -22.3320  -19.7255   11.7938 C   0  0  0  0  0  0
  -24.9546  -21.1971    8.7887 C   0  0  0  0  0  0
  -21.5293  -21.8737   10.8130 N   0  0  0  0  0  0
  -25.3244  -19.5960   10.6091 C   0  0  0  0  0  0
  -22.5592  -23.6702    9.2985 C   0  0  0  0  0  0
  -23.8013  -23.1599    9.5829 C   0  0  0  0  0  0
  -22.5175  -20.9810   11.0746 C   0  0  0  0  0  0
  -19.5596  -23.4312    8.1115 C   0  0  0  0  0  0
  -20.7545  -21.9572   11.4848 H   0  0  0  0  0  0
  -19.2573  -18.1555   13.1328 C   0  0  0  0  0  0
  -20.9634  -19.3611   12.2626 C   0  0  0  0  0  0
  -19.8708  -19.9839   11.9064 N   0  0  0  0  0  0
  -20.5109  -18.0956   12.7114 C   0  0  0  0  0  0
  -18.6709  -19.2666   12.3295 C   0  0  0  0  0  0
  -20.9052  -16.9256   12.0153 C   0  0  1  0  0  0
  -21.6275  -14.7140   13.1492 C   0  0  0  0  0  0
  -21.9483  -16.2288   12.8540 C   0  0  2  0  0  0
  -20.5616  -15.6306   12.6853 C   0  0  1  0  0  0
  -17.3776  -23.8660    6.9277 C   0  0  0  0  0  0
  -18.1420  -23.2663    7.8847 C   0  0  0  0  0  0
  -18.0047  -25.6805    5.3034 C   0  0  0  0  0  0
  -17.8295  -24.3849    5.6186 C   0  0  0  0  0  0
  -17.6903  -26.7382    6.3062 C   0  0  0  0  0  0
  1  3  2  0  0  0
  1 15  1  0  0  0
  2 10  2  0  0  0
  2 14  1  0  0  0
  2 16  1  0  0  0
  3 12  1  0  0  0
  4  5  1  0  0  0
  4 19  2  0  0  0
  5 11  2  0  0  0
  6  8  1  0  0  0
  6  9  2  0  0  0
  6 18  1  0  0  0
  7 13  2  0  0  0
  7 17  1  0  0  0
  8 13  1  0  0  0
  8 15  2  0  0  0
  9 17  1  0  0  0
 10 19  1  0  0  0
 11 16  1  0  0  0
 12 22  1  0  0  0
 12 18  2  0  0  0
 14 18  1  0  0  0
 14 20  1  0  0  0
 16 17  2  0  0  0
 19 31  1  0  0  0
 21 24  2  0  0  0
 21 25  1  0  0  0
 22 23  2  0  0  0
 22 24  1  0  0  0
 23 25  1  0  0  0
 24 26  1  0  0  0
 26 28  1  0  0  0
 26 29  1  0  0  0
 27 28  1  0  0  0
 27 29  1  0  0  0
 28 29  1  0  0  0
 30 33  1  0  0  0
 30 31  2  0  0  0
 32 33  2  0  0  0
 32 34  1  0  0  0
M  END
> <s_m_entry_id>
733

> <s_m_entry_name>
10-myco-4_51_lig_gen_fit_add_gna.sdf.1

> <s_m_Source_Path>
C:\Users\maila\Downloads\mgr\myco-analysis

> <s_m_Source_File>
myco-10-var4-wzakresie.mae

> <i_m_Source_File_Index>
30

> <s_user_SMILES>
C/C=C\C=C/c(ccc1)cc(c1c(c2)ccc3c24)[nH]c4c(ccc3)C5=NCC=C5[C@@H]6[C@H]([C@H]67)C7

> <minimizedAffinity>
-8.93446

> <minimizedRMSD>
0.6001

> <CNNscore>
0.3752897084

> <CNNaffinity>
7.0461235046

> <CNN_VS>
2.6443376541

> <CNNaffinity_variance>
0.0908877477

$$$$
CN(C)C(C1)C1C(=CC2)C=CC2=C=C3C=C(C=C3)CN(N4)[C]45=c6c7c(C7)ccc6=N5
                    3D
 Schrodinger Suite 2021-1.
 31 37  0  0  1  0            999 V2000
  -19.5354  -24.7819    5.8114 C   0  0  0  0  0  0
  -20.9120  -24.8403    5.2494 C   0  0  0  0  0  0
  -21.6829  -23.3890    7.0350 C   0  0  0  0  0  0
  -23.4438  -23.0479    8.9280 C   0  0  0  0  0  0
  -23.6598  -21.7378   10.7898 C   0  0  0  0  0  0
  -23.7566  -21.7195    9.4600 C   0  0  0  0  0  0
  -20.2729  -22.9472    7.3311 C   0  0  0  0  0  0
  -23.3780  -23.1152   11.1798 C   0  0  0  0  0  0
  -21.9323  -24.2137    5.8448 C   0  0  0  0  0  0
  -23.2555  -23.8697   10.1089 C   0  0  0  0  0  0
  -19.2602  -23.9281    6.8140 C   0  0  0  0  0  0
  -22.6167  -23.2051    7.9306 C   0  0  0  0  0  0
  -17.3760  -25.9601    6.2704 C   0  0  0  0  0  0
  -18.3873  -25.5568    5.1966 C   0  0  0  0  0  0
  -18.1264  -27.0374    5.5062 C   0  0  0  0  0  0
  -18.7072  -28.3363    7.4585 C   0  0  0  0  0  0
  -19.2176  -27.7087    6.2282 N   0  0  0  0  0  0
  -19.7719  -28.7533    5.3478 C   0  0  0  0  0  0
  -23.2656  -20.5244   11.6227 C   0  0  0  0  0  0
  -20.9451  -18.4678   11.7406 C   0  0  0  0  0  0
  -19.6298  -19.7802   12.6982 N   0  0  0  0  0  0
  -20.7509  -16.3562   13.2047 C   0  0  0  0  0  0
  -21.4428  -17.3302   12.4381 C   0  0  0  0  0  0
  -19.5063  -18.4947   12.3692 C   0  0  0  0  0  0
  -20.9741  -19.7634   12.1989 C   0  0  0  0  0  0
  -21.9910  -20.7919   12.2993 N   0  0  0  0  0  0
  -19.3156  -16.3519   13.5136 C   0  0  0  0  0  0
  -21.0728  -20.7965   11.2127 N   0  0  0  0  0  0
  -22.1181  -16.2690   12.9687 C   0  0  0  0  0  0
  -18.6698  -17.4048   12.9680 C   0  0  0  0  0  0
  -20.4298  -21.5972   11.4101 H   0  0  0  0  0  0
  1  2  1  0  0  0
  1 14  1  0  0  0
  1 11  2  0  0  0
  2  9  2  0  0  0
  3  7  1  0  0  0
  3  9  1  0  0  0
  3 12  2  0  0  0
  4  6  1  0  0  0
  4 10  1  0  0  0
  4 12  2  0  0  0
  5  6  2  0  0  0
  5  8  1  0  0  0
  5 19  1  0  0  0
  7 11  1  0  0  0
  8 10  2  0  0  0
 13 14  1  0  0  0
 13 15  1  0  0  0
 14 15  1  0  0  0
 15 17  1  0  0  0
 16 17  1  0  0  0
 17 18  1  0  0  0
 19 26  1  0  0  0
 20 23  1  0  0  0
 20 24  1  0  0  0
 20 25  2  0  0  0
 21 24  2  0  0  0
 21 25  1  0  0  0
 22 23  2  0  0  0
 22 27  1  0  0  0
 22 29  1  0  0  0
 23 29  1  0  0  0
 24 30  1  0  0  0
 25 26  1  0  0  0
 25 28  1  0  0  0
 26 28  1  0  0  0
 27 30  2  0  0  0
 28 31  1  0  0  0
M  END
> <s_m_entry_id>
734

> <s_m_entry_name>
10-myco-4_51_lig_gen_fit_add_gna.sdf.10

> <s_m_Source_Path>
C:\Users\maila\Downloads\mgr\myco-analysis

> <s_m_Source_File>
myco-10-var4-wzakresie.mae

> <i_m_Source_File_Index>
31

> <s_user_SMILES>
CN(C)C(C1)C1C(=CC2)C=CC2=C=C3C=C(C=C3)CN(N4)[C]45=c6c7c(C7)ccc6=N5

> <minimizedAffinity>
-8.03633

> <minimizedRMSD>
0.94593

> <CNNscore>
0.585750699

> <CNNaffinity>
6.6127195358

> <CNN_VS>
3.8734049797

> <CNNaffinity_variance>
0.1968135387

$$$$
c1ccccc1CC=CCC(C2O)C23C=C(CC)[C](=C3)(O)Cn(cc4)c(c45)ccnc5O
                    3D
 Schrodinger Suite 2021-1.
 35 39  0  0  1  0            999 V2000
  -23.1591  -22.2677   11.2132 C   0  0  0  0  0  0
  -23.7721  -20.3011   10.0470 C   0  0  0  0  0  0
  -23.0060  -21.0129    9.1736 C   0  0  0  0  0  0
  -23.7160  -20.8268   11.4911 C   0  0  0  0  0  0
  -20.9945  -22.4073    9.7848 C   0  0  0  0  0  0
  -22.4371  -22.1662    9.8912 C   0  0  0  0  0  0
  -25.0181  -20.9889   11.9985 O   0  0  0  0  0  0
  -21.9424  -23.4847    9.1784 C   0  0  0  0  0  0
  -20.3462  -22.8731   10.9192 O   0  0  0  0  0  0
  -25.2792  -20.1450   12.4384 H   0  0  0  0  0  0
  -19.5031  -22.3501   10.9629 H   0  0  0  0  0  0
  -24.9149  -19.0860    8.0896 C   0  0  0  0  0  0
  -24.9114  -19.4015    9.5785 C   0  0  0  0  0  0
  -20.8749  -24.2410    8.3388 C   0  0  0  0  0  0
  -19.7644  -23.6757    6.2918 C   0  0  0  0  0  0
  -20.8911  -24.0742    6.8321 C   0  0  0  0  0  0
  -19.6369  -22.2179    6.0620 C   0  0  0  0  0  0
  -18.1999  -21.7118    6.2040 C   0  0  0  0  0  0
  -16.6059  -19.9205    5.7650 C   0  0  0  0  0  0
  -15.9437  -21.7891    7.1472 C   0  0  0  0  0  0
  -17.8560  -20.4981    5.6031 C   0  0  0  0  0  0
  -17.2061  -22.3640    6.9755 C   0  0  0  0  0  0
  -15.6336  -20.5711    6.5289 C   0  0  0  0  0  0
  -22.7898  -20.1557   12.6475 C   0  0  0  0  0  0
  -21.0727  -18.1945   12.3661 C   0  0  0  0  0  0
  -19.2109  -19.3736   12.2241 C   0  0  0  0  0  0
  -20.9724  -15.9741   13.1277 C   0  0  0  0  0  0
  -20.2469  -20.0507   12.7141 C   0  0  0  0  0  0
  -19.6152  -16.0973   13.3075 N   0  0  0  0  0  0
  -19.0332  -17.2925   13.0166 C   0  0  0  0  0  0
  -21.4676  -19.4545   12.5680 N   0  0  0  0  0  0
  -21.7517  -17.0546   12.7388 C   0  0  0  0  0  0
  -19.7005  -18.1530   12.2716 C   0  0  0  0  0  0
  -17.8541  -17.7646   13.6311 O   0  0  0  0  0  0
  -17.8149  -18.6128   14.1954 H   0  0  0  0  0  0
  1  4  2  0  0  0
  1  6  1  0  0  0
  2  3  2  0  0  0
  2  4  1  0  0  0
  2 13  1  0  0  0
  3  6  1  0  0  0
  4  7  1  0  0  0
  4 24  1  0  0  0
  5  6  1  0  0  0
  5  8  1  0  0  0
  5  9  1  0  0  0
  6  8  1  0  0  0
  7 10  1  0  0  0
  8 14  1  0  0  0
  9 11  1  0  0  0
 12 13  1  0  0  0
 14 16  1  0  0  0
 15 17  1  0  0  0
 15 16  2  0  0  0
 17 18  1  0  0  0
 18 21  2  0  0  0
 18 22  1  0  0  0
 19 21  1  0  0  0
 19 23  2  0  0  0
 20 22  2  0  0  0
 20 23  1  0  0  0
 24 31  1  0  0  0
 25 31  1  0  0  0
 25 32  2  0  0  0
 25 33  1  0  0  0
 26 28  2  0  0  0
 26 33  1  0  0  0
 27 29  2  0  0  0
 27 32  1  0  0  0
 28 31  1  0  0  0
 29 30  1  0  0  0
 30 33  2  0  0  0
 30 34  1  0  0  0
 34 35  1  0  0  0
M  END
> <s_m_entry_id>
735

> <s_m_entry_name>
10-myco-4-rest_8_lig_gen_fit_add_gna.sdf.9

> <s_m_Source_Path>
C:\Users\maila\Downloads\mgr\myco-analysis

> <s_m_Source_File>
myco-10-var4-wzakresie.mae

> <i_m_Source_File_Index>
32

> <s_user_SMILES>
c1ccccc1CC=CCC(C2O)C23C=C(CC)[C](=C3)(O)Cn(cc4)c(c45)ccnc5O

> <minimizedAffinity>
-8.55803

> <minimizedRMSD>
1.42382

> <CNNscore>
0.511456728

> <CNNaffinity>
6.9191665649

> <CNN_VS>
3.5388543606

> <CNNaffinity_variance>
0.0273498707

$$$$
NC1CC=c(c=12)cc(cc2)[C@H](O)C[C@@H]3[C@H](C3)CNCC
                    3D
 Schrodinger Suite 2021-1.
 24 26  0  0  1  0            999 V2000
  -24.3483  -19.5867   11.3369 C   0  0  1  0  0  0
  -25.4825  -18.9402   11.8465 O   0  0  0  0  0  0
  -25.5682  -19.2114   12.7955 H   0  0  0  0  0  0
  -19.3515  -17.9745   12.9494 C   0  0  0  0  0  0
  -18.0808  -18.6005   12.9396 N   0  0  0  0  0  0
  -20.9950  -16.4064   12.8081 C   0  0  0  0  0  0
  -20.5309  -18.5738   12.8615 C   0  0  0  0  0  0
  -21.5098  -17.6226   12.7702 C   0  0  0  0  0  0
  -22.1752  -20.2983   12.5242 C   0  0  0  0  0  0
  -19.5202  -16.5070   12.9055 C   0  0  0  0  0  0
  -20.8463  -19.9296   12.7348 C   0  0  0  0  0  0
  -22.8196  -17.9687   12.4691 C   0  0  0  0  0  0
  -23.1425  -19.3134   12.2284 C   0  0  0  0  0  0
  -17.9805  -19.5383   12.5196 H   0  0  0  0  0  0
  -17.2273  -18.0341   13.1399 H   0  0  0  0  0  0
  -24.6860  -21.0684   11.0863 C   0  0  0  0  0  0
  -22.8680  -21.7531    9.2347 C   0  0  1  0  0  0
  -23.7909  -20.6791    8.6984 C   0  0  0  0  0  0
  -24.3216  -21.6829    9.7204 C   0  0  2  0  0  0
  -22.4818  -22.8436    8.2123 C   0  0  0  0  0  0
  -21.8667  -24.0281    8.8315 N   0  0  2  0  0  0
  -21.0363  -23.7006    9.3805 H   0  0  0  0  0  0
  -21.3884  -24.9791    7.8196 C   0  0  0  0  0  0
  -21.0464  -26.3097    8.4768 C   0  0  0  0  0  0
  1 16  1  0  0  0
  1 13  1  0  0  0
  1  2  1  0  0  0
  2  3  1  0  0  0
  4  5  1  0  0  0
  4  7  2  0  0  0
  4 10  1  0  0  0
  5 14  1  0  0  0
  5 15  1  0  0  0
  6  8  2  0  0  0
  6 10  1  0  0  0
  7  8  1  0  0  0
  7 11  1  0  0  0
  8 12  1  0  0  0
  9 11  2  0  0  0
  9 13  1  0  0  0
 12 13  2  0  0  0
 16 19  1  0  0  0
 17 20  1  0  0  0
 17 18  1  0  0  0
 17 19  1  0  0  0
 18 19  1  0  0  0
 20 21  1  0  0  0
 21 23  1  0  0  0
 21 22  1  0  0  0
 23 24  1  0  0  0
M  END
> <s_m_entry_id>
736

> <s_m_entry_name>
10-myco-4-rest_7_lig_gen_fit_add_gna.sdf.10

> <s_m_Source_Path>
C:\Users\maila\Downloads\mgr\myco-analysis

> <s_m_Source_File>
myco-10-var4-wzakresie.mae

> <i_m_Source_File_Index>
33

> <s_user_SMILES>
NC1CC=c(c=12)cc(cc2)[C@H](O)C[C@@H]3[C@H](C3)CNCC

> <minimizedAffinity>
-8.50437

> <minimizedRMSD>
0.8494

> <CNNscore>
0.9093317986

> <CNNaffinity>
6.1272454262

> <CNN_VS>
5.5716991425

> <CNNaffinity_variance>
0.0600419566

$$$$
[H]\N=C\c1c(N)cc(N)cc1O[C@@H](C2)[C@H]2C[C@@H](C)N[C@](N)(N3)[C@]3(C456)[C@]5(C)[C@@H]6C\4=N/[H]
                    3D
 Schrodinger Suite 2021-1.
 38 43  0  0  1  0            999 V2000
   12.8892   -6.0975    0.7396 C   0  0  0  0  0  0
   10.9810   -3.9402    0.7779 C   0  0  2  0  0  0
   11.7653   -5.1756    0.2742 C   0  0  2  0  0  0
   10.8063   -5.2118    1.4641 C   0  0  0  0  0  0
    9.8247   -3.6544   -0.0332 O   0  0  0  0  0  0
    6.8144   -3.3379    2.1217 C   0  0  0  0  0  0
    8.4860   -3.7579    0.4087 C   0  0  0  0  0  0
    6.1338   -4.3264    0.0449 C   0  0  0  0  0  0
    5.8185   -3.7568    1.2664 C   0  0  0  0  0  0
    7.4817   -4.3490   -0.4088 C   0  0  0  0  0  0
    5.0709   -4.9853   -0.6373 N   0  0  0  0  0  0
    8.1429   -3.3340    1.6963 C   0  0  0  0  0  0
    6.4687   -3.0024    3.4555 N   0  0  0  0  0  0
    4.1107   -5.0056   -0.2248 H   0  0  0  0  0  0
    5.2203   -5.5526   -1.4860 H   0  0  0  0  0  0
    6.9157   -3.5092    4.2330 H   0  0  0  0  0  0
    5.5734   -2.5286    3.6705 H   0  0  0  0  0  0
    7.8553   -5.2266   -1.5502 C   0  0  0  0  0  0
    9.0521   -5.2861   -1.9969 N   0  0  0  0  0  0
    9.2940   -5.9573   -2.7542 H   0  0  0  0  0  0
   12.0941   -8.3335    1.7538 C   0  0  0  0  0  0
   12.5990   -7.6342    0.4657 C   0  0  1  0  0  0
   11.6964   -7.8890   -0.6866 N   0  0  1  0  0  0
   11.7972   -7.0843   -1.3312 H   0  0  0  0  0  0
   11.7969   -7.8320   -3.7094 C   0  0  3  0  0  0
   12.8882   -6.7418   -3.5973 C   0  0  0  0  0  0
   12.3955   -9.0641   -4.3870 C   0  0  1  0  0  0
   11.7006  -10.4253   -0.8547 N   0  0  0  0  0  0
   11.3490   -9.7294   -5.2898 C   0  0  0  0  0  0
   12.7268   -7.6581   -4.8000 C   0  0  1  0  0  0
   12.0089   -9.1534   -2.9309 C   0  0  2  0  0  0
   12.0356   -9.1275   -1.4427 C   0  0  1  0  0  0
   13.2974   -9.1038   -2.1694 N   0  0  1  0  0  0
   13.4679   -5.7750   -2.9903 N   0  0  0  0  0  0
   12.4840  -10.7393   -0.2408 H   0  0  0  0  0  0
   10.8316  -10.3429   -0.2850 H   0  0  0  0  0  0
   13.7033  -10.0676   -2.2090 H   0  0  0  0  0  0
   14.2627   -5.2925   -3.4321 H   0  0  0  0  0  0
  1  3  1  0  0  0
  1 22  1  0  0  0
  2  3  1  0  0  0
  2  4  1  0  0  0
  2  5  1  0  0  0
  3  4  1  0  0  0
  5  7  1  0  0  0
  6  9  2  0  0  0
  6 12  1  0  0  0
  6 13  1  0  0  0
  7 10  1  0  0  0
  7 12  2  0  0  0
  8  9  1  0  0  0
  8 10  2  0  0  0
  8 11  1  0  0  0
 10 18  1  0  0  0
 11 14  1  0  0  0
 11 15  1  0  0  0
 13 16  1  0  0  0
 13 17  1  0  0  0
 18 19  2  0  0  0
 19 20  1  0  0  0
 21 22  1  0  0  0
 22 23  1  0  0  0
 23 32  1  0  0  0
 23 24  1  0  0  0
 25 26  1  0  0  0
 25 27  1  0  0  0
 25 30  1  0  0  0
 25 31  1  0  0  0
 26 30  1  0  0  0
 26 34  2  0  0  0
 27 29  1  0  0  0
 27 30  1  0  0  0
 27 31  1  0  0  0
 28 32  1  0  0  0
 28 35  1  0  0  0
 28 36  1  0  0  0
 31 32  1  0  0  0
 31 33  1  0  0  0
 32 33  1  0  0  0
 33 37  1  0  0  0
 34 38  1  0  0  0
M  END
> <s_m_entry_id>
737

> <s_m_entry_name>
10-myco-4-rest_6_lig_gen_fit_add_gna.sdf.5

> <s_m_Source_Path>
C:\Users\maila\Downloads\mgr\myco-analysis

> <s_m_Source_File>
myco-10-var4-wzakresie.mae

> <i_m_Source_File_Index>
34

> <s_user_SMILES>
[H]\N=C\c1c(N)cc(N)cc1O[C@@H](C2)[C@H]2C[C@@H](C)N[C@](N)(N3)[C@]3(C456)[C@]5(C)[C@@H]6C\4=N/[H]

> <minimizedAffinity>
-9.31442

> <minimizedRMSD>
1.16234

> <CNNscore>
0.8086698651

> <CNNaffinity>
6.8234496117

> <CNN_VS>
5.5179181099

> <CNNaffinity_variance>
0.09241952

$$$$
[H]\N=C\C1=CC=C(C1)CC[C@H](COCC2)[C@@]2(O)C3=CN=C(C3=4)N=C(C4)N
                    3D
 Schrodinger Suite 2021-1.
 29 32  0  0  1  0            999 V2000
   12.0586   -5.3468    0.4745 C   0  0  2  0  0  0
   12.8411   -4.1957    0.3831 O   0  0  0  0  0  0
   12.1255   -5.8347    1.9575 C   0  0  0  0  0  0
   12.7234   -6.4239   -0.4208 C   0  0  1  0  0  0
   11.9010   -7.3407    2.1934 C   0  0  0  0  0  0
   12.4344   -8.1908    1.1953 O   0  0  0  0  0  0
   12.0574   -7.7847   -0.1026 C   0  0  0  0  0  0
   12.5154   -3.5822    1.0945 H   0  0  0  0  0  0
    7.8178   -3.3843    1.4930 C   0  0  0  0  0  0
    8.7416   -3.7282   -0.3890 C   0  0  0  0  0  0
    9.7772   -3.9127    0.5639 C   0  0  0  0  0  0
   10.0518   -5.2644   -1.1593 C   0  0  0  0  0  0
    7.5210   -3.3784    0.2318 N   0  0  0  0  0  0
   10.6394   -4.9661    0.0176 C   0  0  0  0  0  0
    8.8264   -4.5635   -1.3615 N   0  0  0  0  0  0
    6.8151   -3.2566    2.4948 N   0  0  0  0  0  0
    9.2241   -3.7624    1.7580 C   0  0  0  0  0  0
    7.0304   -3.4770    3.4864 H   0  0  0  0  0  0
    5.8295   -3.0403    2.2291 H   0  0  0  0  0  0
   12.8839   -5.9833   -1.9265 C   0  0  0  0  0  0
   12.6222   -7.0944   -2.9686 C   0  0  0  0  0  0
   13.4491   -6.9915   -4.2230 C   0  0  0  0  0  0
   13.7938   -8.0504   -4.9443 C   0  0  0  0  0  0
   14.8580   -6.3232   -5.9277 C   0  0  0  0  0  0
   14.0772   -5.7566   -4.7876 C   0  0  0  0  0  0
   14.6793   -7.6317   -6.0141 C   0  0  0  0  0  0
   15.7010   -5.5444   -6.8428 C   0  0  0  0  0  0
   16.1800   -4.4010   -6.4763 N   0  0  0  0  0  0
   16.7798   -3.8423   -7.1229 H   0  0  0  0  0  0
  1  2  1  0  0  0
  1  3  1  0  0  0
  1  4  1  0  0  0
  1 14  1  0  0  0
  2  8  1  0  0  0
  3  5  1  0  0  0
  4 20  1  0  0  0
  4  7  1  0  0  0
  5  6  1  0  0  0
  6  7  1  0  0  0
  9 13  2  0  0  0
  9 16  1  0  0  0
  9 17  1  0  0  0
 10 11  1  0  0  0
 10 13  1  0  0  0
 10 15  2  0  0  0
 11 14  1  0  0  0
 11 17  2  0  0  0
 12 14  2  0  0  0
 12 15  1  0  0  0
 16 18  1  0  0  0
 16 19  1  0  0  0
 20 21  1  0  0  0
 21 22  1  0  0  0
 22 23  2  0  0  0
 22 25  1  0  0  0
 23 26  1  0  0  0
 24 25  1  0  0  0
 24 27  1  0  0  0
 24 26  2  0  0  0
 27 28  2  0  0  0
 28 29  1  0  0  0
M  END
> <s_m_entry_id>
738

> <s_m_entry_name>
10-myco-4-rest_6_lig_gen_fit_add_gna.sdf.8

> <s_m_Source_Path>
C:\Users\maila\Downloads\mgr\myco-analysis

> <s_m_Source_File>
myco-10-var4-wzakresie.mae

> <i_m_Source_File_Index>
35

> <s_user_SMILES>
[H]\N=C\C1=CC=C(C1)CC[C@H](COCC2)[C@@]2(O)C3=CN=C(C3=4)N=C(C4)N

> <minimizedAffinity>
-8.14087

> <minimizedRMSD>
0.55716

> <CNNscore>
0.5275794864

> <CNNaffinity>
6.0958867073

> <CNN_VS>
3.2160646915

> <CNNaffinity_variance>
0.1016277447

$$$$
OC=C=C[C@H](CC)CCCC1=CC(C1=2)=CCN(C2)CCCc3cc(=O)[nH]nc3
                    3D
 Schrodinger Suite 2021-1.
 30 32  0  0  1  0            999 V2000
  -24.1208   20.8431   -8.0996 C   0  0  0  0  0  0
  -25.1517   20.2754   -9.1156 C   0  0  0  0  0  0
  -24.2396   19.5467   -7.2824 C   0  0  0  0  0  0
  -23.1488   20.2522  -10.7037 N   0  0  0  0  0  0
  -22.8031   21.3951   -8.6283 C   0  0  0  0  0  0
  -25.5396   19.2277   -8.0468 C   0  0  0  0  0  0
  -22.9300   21.5831  -10.1171 C   0  0  0  0  0  0
  -24.4863   19.6934  -10.3810 C   0  0  0  0  0  0
  -26.1574   17.8371   -8.3173 C   0  0  0  0  0  0
  -26.1627   16.9473   -7.0418 C   0  0  0  0  0  0
  -27.3370   17.2827   -6.1151 C   0  0  0  0  0  0
  -27.3489   16.6093   -4.7316 C   0  0  2  0  0  0
  -25.6663   17.7340   -3.3773 C   0  0  0  0  0  0
  -25.9964   16.6746   -4.0721 C   0  0  0  0  0  0
  -26.3260   19.3900   -1.8719 O   0  0  0  0  0  0
  -25.3632   18.7899   -2.6743 C   0  0  0  0  0  0
  -26.6972   18.9044   -1.0642 H   0  0  0  0  0  0
  -27.9300   15.1840   -4.7876 C   0  0  0  0  0  0
  -29.3736   15.1555   -5.3149 C   0  0  0  0  0  0
  -22.9630   20.2663  -12.1538 C   0  0  0  0  0  0
  -21.4789   20.3291  -12.5318 C   0  0  0  0  0  0
  -21.1073   19.2887  -13.5729 C   0  0  0  0  0  0
  -20.6807   18.0041  -12.9780 C   0  0  0  0  0  0
  -18.8502   16.5190  -12.8598 C   0  0  0  0  0  0
  -21.0190   15.6742  -12.7469 N   0  0  0  0  0  0
  -21.5434   16.9069  -12.9560 C   0  0  0  0  0  0
  -19.3226   17.8026  -12.7121 C   0  0  0  0  0  0
  -19.7032   15.5076  -12.5928 N   0  0  0  0  0  0
  -17.7076   16.2945  -13.3331 O   0  0  0  0  0  0
  -19.3664   14.7522  -11.9790 H   0  0  0  0  0  0
  1  2  1  0  0  0
  1  3  1  0  0  0
  1  5  2  0  0  0
  2  6  1  0  0  0
  2  8  2  0  0  0
  3  6  2  0  0  0
  4 20  1  0  0  0
  4  7  1  0  0  0
  4  8  1  0  0  0
  5  7  1  0  0  0
  6  9  1  0  0  0
  9 10  1  0  0  0
 10 11  1  0  0  0
 11 12  1  0  0  0
 12 14  1  0  0  0
 12 18  1  0  0  0
 13 14  2  0  0  0
 13 16  2  0  0  0
 15 16  1  0  0  0
 15 17  1  0  0  0
 18 19  1  0  0  0
 20 21  1  0  0  0
 21 22  1  0  0  0
 22 23  1  0  0  0
 23 26  1  0  0  0
 23 27  2  0  0  0
 24 27  1  0  0  0
 24 28  1  0  0  0
 24 29  2  0  0  0
 25 26  2  0  0  0
 25 28  1  0  0  0
 28 30  1  0  0  0
M  END
> <s_m_entry_id>
739

> <s_m_entry_name>
10-myco-4-rest_5_lig_gen_fit_add_gna.sdf.8

> <s_m_Source_Path>
C:\Users\maila\Downloads\mgr\myco-analysis

> <s_m_Source_File>
myco-10-var4-wzakresie.mae

> <i_m_Source_File_Index>
36

> <s_user_SMILES>
OC=C=C[C@H](CC)CCCC1=CC(C1=2)=CCN(C2)CCCc3cc(=O)[nH]nc3

> <minimizedAffinity>
-9.39065

> <minimizedRMSD>
1.10233

> <CNNscore>
0.3507145047

> <CNNaffinity>
6.4605879784

> <CNN_VS>
2.2658219337

> <CNNaffinity_variance>
0.4742071033

$$$$
C1CC[C@@H]([C@@H]12)[C@@]2(O)CCC(=C3)CC=C3CC(=C4)CC(O)=C4CC
                    3D
 Schrodinger Suite 2021-1.
 25 28  0  0  1  0            999 V2000
  -25.2610   20.8063   -9.2143 C   0  0  0  0  0  0
  -24.3861   20.2956  -11.3016 C   0  0  0  0  0  0
  -25.4758   19.5172   -9.4315 C   0  0  0  0  0  0
  -25.1052   19.2798  -10.8247 C   0  0  0  0  0  0
  -24.5522   21.4436  -10.3681 C   0  0  0  0  0  0
  -25.0334   18.5114   -8.4023 C   0  0  0  0  0  0
  -25.8301   18.4962   -7.1332 C   0  0  0  0  0  0
  -26.8393   17.6424   -6.9690 C   0  0  0  0  0  0
  -25.9771   17.8645   -4.9155 C   0  0  0  0  0  0
  -25.1450   18.7060   -5.8096 C   0  0  0  0  0  0
  -25.8596   17.8476   -3.5301 O   0  0  0  0  0  0
  -26.8842   17.1730   -5.5864 C   0  0  0  0  0  0
  -26.3325   18.5468   -2.9707 H   0  0  0  0  0  0
  -27.1634   15.7334   -5.2595 C   0  0  0  0  0  0
  -28.6550   15.5066   -5.0456 C   0  0  0  0  0  0
  -23.0803   20.1095  -12.0605 C   0  0  0  0  0  0
  -22.7114   18.6282  -12.2384 C   0  0  0  0  0  0
  -21.7320   18.1998  -14.4977 O   0  0  0  0  0  0
  -18.8272   18.3062  -13.5897 C   0  0  0  0  0  0
  -18.4942   16.8470  -13.4967 C   0  0  0  0  0  0
  -21.4808   18.3150  -13.1392 C   0  0  2  0  0  0
  -20.6855   17.1249  -12.6159 C   0  0  1  0  0  0
  -19.8586   16.1999  -13.4724 C   0  0  0  0  0  0
  -20.0262   18.5051  -12.6696 C   0  0  1  0  0  0
  -22.3749   17.4511  -14.5670 H   0  0  0  0  0  0
  1  3  2  0  0  0
  1  5  1  0  0  0
  2  4  2  0  0  0
  2 16  1  0  0  0
  2  5  1  0  0  0
  3  6  1  0  0  0
  3  4  1  0  0  0
  6  7  1  0  0  0
  7  8  2  0  0  0
  7 10  1  0  0  0
  8 12  1  0  0  0
  9 10  1  0  0  0
  9 11  1  0  0  0
  9 12  2  0  0  0
 11 13  1  0  0  0
 12 14  1  0  0  0
 14 15  1  0  0  0
 16 17  1  0  0  0
 17 21  1  0  0  0
 18 21  1  0  0  0
 18 25  1  0  0  0
 19 20  1  0  0  0
 19 24  1  0  0  0
 20 23  1  0  0  0
 21 22  1  0  0  0
 21 24  1  0  0  0
 22 23  1  0  0  0
 22 24  1  0  0  0
M  END
> <s_m_entry_id>
740

> <s_m_entry_name>
10-myco-4-rest_5_lig_gen_fit_add_gna.sdf.9

> <s_m_Source_Path>
C:\Users\maila\Downloads\mgr\myco-analysis

> <s_m_Source_File>
myco-10-var4-wzakresie.mae

> <i_m_Source_File_Index>
37

> <s_user_SMILES>
C1CC[C@@H]([C@@H]12)[C@@]2(O)CCC(=C3)CC=C3CC(=C4)CC(O)=C4CC

> <minimizedAffinity>
-9.64342

> <minimizedRMSD>
1.09815

> <CNNscore>
0.6591360569

> <CNNaffinity>
6.35582304

> <CNN_VS>
4.1893520355

> <CNNaffinity_variance>
0.1535222381

$$$$
C=CCCc1c(ccc(Cl)c1)Cc(c2CCC)ccc(c2)[C@H]([C@@H]3O)c(c34)ncnc4O
                    3D
 Schrodinger Suite 2021-1.
 33 36  0  0  1  0            999 V2000
  -24.6346  -19.6562   10.5181 C   0  0  0  0  0  0
  -22.8773  -19.5910   12.1473 C   0  0  0  0  0  0
  -24.2908  -20.9837   10.1808 C   0  0  0  0  0  0
  -22.6953  -20.9741   11.9885 C   0  0  0  0  0  0
  -23.4196  -21.6985   11.0418 C   0  0  0  0  0  0
  -23.9483  -18.9707   11.5133 C   0  0  0  0  0  0
  -20.5313  -19.0776   12.4138 C   0  0  0  0  0  0
  -18.3136  -16.2652   13.0871 O   0  0  0  0  0  0
  -21.8679  -18.8824   12.9936 C   0  0  1  0  0  0
  -18.8289  -17.4432   12.6503 C   0  0  0  0  0  0
  -18.4395  -19.6066   11.7282 C   0  0  0  0  0  0
  -21.5816  -17.4571   13.0719 C   0  0  2  0  0  0
  -22.1341  -16.6917   12.0510 O   0  0  0  0  0  0
  -17.9990  -18.3712   12.1126 N   0  0  0  0  0  0
  -19.7422  -19.9947   11.8610 N   0  0  0  0  0  0
  -20.1544  -17.7761   12.7561 C   0  0  0  0  0  0
  -17.3154  -16.1181   13.0060 H   0  0  0  0  0  0
  -21.7041  -15.8007   12.1312 H   0  0  0  0  0  0
  -24.9136  -21.6018    8.9585 C   0  0  0  0  0  0
  -22.8668  -21.1258    5.7427 C   0  0  0  0  0  0
  -24.6013  -19.4554    5.8185 C   0  0  0  0  0  0
  -23.2319  -21.5969    7.0044 C   0  0  0  0  0  0
  -24.9913  -19.9193    7.0722 C   0  0  0  0  0  0
  -24.3550  -21.0285    7.6653 C   0  0  0  0  0  0
  -23.5520  -20.0750    5.1480 C   0  0  0  0  0  0
  -23.0971  -19.5575    3.5519 Cl  0  0  0  0  0  0
  -22.4221  -22.7260    7.5760 C   0  0  0  0  0  0
  -22.6316  -24.0137    6.7708 C   0  0  0  0  0  0
  -21.3689  -24.8228    6.6815 C   0  0  0  0  0  0
  -20.2265  -24.4105    7.2364 C   0  0  0  0  0  0
  -23.3471  -23.2134   11.1203 C   0  0  0  0  0  0
  -22.0530  -23.8024   10.5404 C   0  0  0  0  0  0
  -22.1509  -25.3186   10.3893 C   0  0  0  0  0  0
  1  3  2  0  0  0
  1  6  1  0  0  0
  2  4  1  0  0  0
  2  9  1  0  0  0
  2  6  2  0  0  0
  3 19  1  0  0  0
  3  5  1  0  0  0
  4  5  2  0  0  0
  5 31  1  0  0  0
  7  9  1  0  0  0
  7 15  2  0  0  0
  7 16  1  0  0  0
  8 10  1  0  0  0
  8 17  1  0  0  0
  9 12  1  0  0  0
 10 14  1  0  0  0
 10 16  2  0  0  0
 11 14  2  0  0  0
 11 15  1  0  0  0
 12 13  1  0  0  0
 12 16  1  0  0  0
 13 18  1  0  0  0
 19 24  1  0  0  0
 20 22  2  0  0  0
 20 25  1  0  0  0
 21 23  1  0  0  0
 21 25  2  0  0  0
 22 24  1  0  0  0
 22 27  1  0  0  0
 23 24  2  0  0  0
 25 26  1  0  0  0
 27 28  1  0  0  0
 28 29  1  0  0  0
 29 30  2  0  0  0
 31 32  1  0  0  0
 32 33  1  0  0  0
M  END
> <s_m_entry_id>
741

> <s_m_entry_name>
10-myco-4-rest_1_lig_gen_fit_add_gna.sdf.2

> <s_m_Source_Path>
C:\Users\maila\Downloads\mgr\myco-analysis

> <s_m_Source_File>
myco-10-var4-wzakresie.mae

> <i_m_Source_File_Index>
38

> <s_user_SMILES>
C=CCCc1c(ccc(Cl)c1)Cc(c2CCC)ccc(c2)[C@H]([C@@H]3O)c(c34)ncnc4O

> <minimizedAffinity>
-8.81107

> <minimizedRMSD>
0.60101

> <CNNscore>
0.5864761472

> <CNNaffinity>
7.3788099289

> <CNN_VS>
4.3274960518

> <CNNaffinity_variance>
0.1852454394

$$$$
C[C@H]1C=CC(=C1CC=O)c(ccc2)cc2CC[C@@H](C)NC[C@@H]3[C@H](C3)C4CC4
                    3D
 Schrodinger Suite 2021-1.
 28 31  0  0  1  0            999 V2000
  -24.6288  -21.3729   10.6023 C   0  0  0  0  0  0
  -23.5225  -22.0798   11.0902 C   0  0  0  0  0  0
  -22.6056  -20.0200   12.0374 C   0  0  0  0  0  0
  -24.7451  -20.0059   10.8572 C   0  0  0  0  0  0
  -23.7200  -19.3222   11.5223 C   0  0  0  0  0  0
  -22.6160  -21.4197   11.9282 C   0  0  0  0  0  0
  -20.8850  -18.1516   12.6543 C   0  0  0  0  0  0
  -20.0533  -20.1290   11.9746 C   0  0  0  0  0  0
  -18.5946  -17.4436   13.6723 C   0  0  0  0  0  0
  -21.2662  -19.3965   12.3130 C   0  0  0  0  0  0
  -19.3792  -18.0132   12.4868 C   0  0  1  0  0  0
  -18.9887  -19.3981   12.1935 C   0  0  0  0  0  0
  -21.7666  -16.9886   13.0059 C   0  0  0  0  0  0
  -21.1837  -15.7301   12.4435 C   0  0  0  0  0  0
  -21.2369  -14.6688   13.0353 O   0  0  0  0  0  0
  -23.2738  -23.5166   10.6940 C   0  0  0  0  0  0
  -21.8715  -23.7564   10.0788 C   0  0  0  0  0  0
  -21.7919  -23.7971    8.5298 C   0  0  1  0  0  0
  -22.4717  -25.0512    7.9485 C   0  0  0  0  0  0
  -22.1564  -22.5091    7.8831 N   0  0  2  0  0  0
  -22.1604  -21.7365    8.5872 H   0  0  0  0  0  0
  -23.4171  -22.4734    7.1254 C   0  0  0  0  0  0
  -23.5954  -21.0898    6.4782 C   0  0  2  0  0  0
  -23.8271  -21.0672    4.9674 C   0  0  2  0  0  0
  -22.4667  -20.6891    5.5332 C   0  0  0  0  0  0
  -25.1863  -20.0100    3.0529 C   0  0  0  0  0  0
  -23.9902  -19.1112    3.3130 C   0  0  0  0  0  0
  -24.6372  -19.8650    4.4649 C   0  0  0  0  0  0
  1  2  2  0  0  0
  1  4  1  0  0  0
  2 16  1  0  0  0
  2  6  1  0  0  0
  3 10  1  0  0  0
  3  5  1  0  0  0
  3  6  2  0  0  0
  4  5  2  0  0  0
  7 10  2  0  0  0
  7 11  1  0  0  0
  7 13  1  0  0  0
  8 10  1  0  0  0
  8 12  2  0  0  0
  9 11  1  0  0  0
 11 12  1  0  0  0
 13 14  1  0  0  0
 14 15  2  0  0  0
 16 17  1  0  0  0
 17 18  1  0  0  0
 18 19  1  0  0  0
 18 20  1  0  0  0
 20 22  1  0  0  0
 20 21  1  0  0  0
 22 23  1  0  0  0
 23 24  1  0  0  0
 23 25  1  0  0  0
 24 25  1  0  0  0
 24 28  1  0  0  0
 26 27  1  0  0  0
 26 28  1  0  0  0
 27 28  1  0  0  0
M  END
> <s_m_entry_id>
742

> <s_m_entry_name>
10-myco-4-rest_1_lig_gen_fit_add_gna.sdf.7

> <s_m_Source_Path>
C:\Users\maila\Downloads\mgr\myco-analysis

> <s_m_Source_File>
myco-10-var4-wzakresie.mae

> <i_m_Source_File_Index>
39

> <s_user_SMILES>
C[C@H]1C=CC(=C1CC=O)c(ccc2)cc2CC[C@@H](C)NC[C@@H]3[C@H](C3)C4CC4

> <minimizedAffinity>
-8.56067

> <minimizedRMSD>
0.51184

> <CNNscore>
0.4689992964

> <CNNaffinity>
6.6408147812

> <CNN_VS>
3.1145374775

> <CNNaffinity_variance>
0.2277778834

$$$$
CC[C@@H](C)[C@H]1[C@@H]2[C@@]3(C124)[C@H]4CC[C@H]3C(=C(C5=6)C5)CC6Cc7cc(c78)ccn(C)n8C
                    3D
 Schrodinger Suite 2021-1.
 29 36  0  0  1  0            999 V2000
  -22.5605  -23.1829   10.0653 C   0  0  0  0  0  0
  -22.8282  -21.1866   11.7892 C   0  0  0  0  0  0
  -23.6994  -23.0700   10.6046 C   0  0  0  0  0  0
  -21.8426  -21.9661   10.7825 C   0  0  0  0  0  0
  -24.9025  -22.7775   11.2612 C   0  0  0  0  0  0
  -23.8262  -21.9538   11.5344 C   0  0  0  0  0  0
  -22.0123  -24.4064    9.4599 C   0  0  2  0  0  0
  -21.4453  -25.3474   10.4967 C   0  0  0  0  0  0
  -20.0495  -25.4801    8.5306 C   0  0  2  0  0  0
  -20.1784  -24.4022    6.2079 C   0  0  1  0  0  0
  -20.6639  -26.3293    9.6525 C   0  0  0  0  0  0
  -20.8090  -24.1722    8.5645 C   0  0  2  0  0  0
  -21.0294  -23.5949    7.1835 C   0  0  2  0  0  0
  -20.9256  -25.0963    7.3448 C   0  0  3  0  0  0
  -20.6946  -24.6269    4.7635 C   0  0  2  0  0  0
  -22.0858  -25.2771    4.6537 C   0  0  0  0  0  0
  -18.4316  -25.8216    4.7977 C   0  0  0  0  0  0
  -19.6525  -25.4364    3.9594 C   0  0  0  0  0  0
  -23.1454  -19.7431   11.8992 C   0  0  0  0  0  0
  -22.1906  -18.7783   12.5337 C   0  0  0  0  0  0
  -20.3734  -16.1375   12.8794 C   0  0  0  0  0  0
  -20.8732  -18.4339   12.7947 C   0  0  0  0  0  0
  -19.0270  -16.5305   12.9692 C   0  0  0  0  0  0
  -18.7007  -17.8380   13.0654 N   0  0  0  0  0  0
  -17.5276  -18.0613   13.8529 C   0  0  0  0  0  0
  -21.2267  -17.1968   12.8563 C   0  0  0  0  0  0
  -19.2220  -19.9208   12.1172 C   0  0  0  0  0  0
  -19.6018  -18.8105   12.8690 N   0  0  0  0  0  0
  -22.4707  -17.5839   13.1040 C   0  0  0  0  0  0
  1  7  1  0  0  0
  1  3  2  0  0  0
  1  4  1  0  0  0
  2  4  1  0  0  0
  2  6  2  0  0  0
  2 19  1  0  0  0
  3  5  1  0  0  0
  3  6  1  0  0  0
  5  6  1  0  0  0
  7  8  1  0  0  0
  7 12  1  0  0  0
  8 11  1  0  0  0
  9 11  1  0  0  0
  9 12  1  0  0  0
  9 14  1  0  0  0
 10 15  1  0  0  0
 10 13  1  0  0  0
 10 14  1  0  0  0
 12 13  1  0  0  0
 12 14  1  0  0  0
 13 14  1  0  0  0
 15 18  1  0  0  0
 15 16  1  0  0  0
 17 18  1  0  0  0
 19 20  1  0  0  0
 20 22  2  0  0  0
 20 29  1  0  0  0
 21 23  2  0  0  0
 21 26  1  0  0  0
 22 26  1  0  0  0
 22 28  1  0  0  0
 23 24  1  0  0  0
 24 25  1  0  0  0
 24 28  1  0  0  0
 26 29  2  0  0  0
 27 28  1  0  0  0
M  END
> <s_m_entry_id>
743

> <s_m_entry_name>
10-myco-4-rest_0_lig_gen_fit_add_gna.sdf.6

> <s_m_Source_Path>
C:\Users\maila\Downloads\mgr\myco-analysis

> <s_m_Source_File>
myco-10-var4-wzakresie.mae

> <i_m_Source_File_Index>
40

> <s_user_SMILES>
CC[C@@H](C)[C@H]1[C@@H]2[C@@]3(C124)[C@H]4CC[C@H]3C(=C(C5=6)C5)CC6Cc7cc(c78)ccn(C)n8C

> <minimizedAffinity>
-9.14948

> <minimizedRMSD>
1.33904

> <CNNscore>
0.5504944324

> <CNNaffinity>
7.0138921738

> <CNN_VS>
3.8611085415

> <CNNaffinity_variance>
0.115548037

$$$$
c1ccc(O)cc1CCC2=CC=C(CC=C2)c(ccc3)cc3-c(c4)ccc(c45)c\5=N/[H]
                    3D
 Schrodinger Suite 2021-1.
 32 36  0  0  1  0            999 V2000
  -22.3289  -24.0424    9.5785 C   0  0  0  0  0  0
  -22.1870  -23.9352    8.3052 C   0  0  0  0  0  0
  -20.5545  -26.0089    9.4498 C   0  0  0  0  0  0
  -21.1446  -24.7842   10.2011 C   0  0  0  0  0  0
  -20.1163  -26.1106    8.1514 C   0  0  0  0  0  0
  -21.3992  -24.3657    7.2709 C   0  0  0  0  0  0
  -20.4354  -25.1781    7.0236 C   0  0  0  0  0  0
  -22.6438  -20.8789   11.6267 C   0  0  0  0  0  0
  -22.9239  -22.9195   10.3180 C   0  0  0  0  0  0
  -24.3052  -22.7932   10.4345 C   0  0  0  0  0  0
  -24.0447  -20.7504   11.6921 C   0  0  0  0  0  0
  -22.1003  -21.9589   10.9022 C   0  0  0  0  0  0
  -24.8648  -21.7036   11.0919 C   0  0  0  0  0  0
  -22.2452  -18.5214   12.4470 C   0  0  0  0  0  0
  -19.3220  -19.1465   12.6235 C   0  0  0  0  0  0
  -21.7438  -19.8519   12.2108 C   0  0  0  0  0  0
  -20.3104  -20.1512   12.3560 C   0  0  0  0  0  0
  -21.2302  -17.6598   12.7070 C   0  0  0  0  0  0
  -19.9126  -17.9402   12.7863 C   0  0  0  0  0  0
  -20.1082  -15.4269   13.2286 N   0  0  0  0  0  0
  -20.3435  -16.6617   12.9775 C   0  0  0  0  0  0
  -19.1594  -15.1173   13.4543 H   0  0  0  0  0  0
  -19.6686  -25.1456    5.7325 C   0  0  0  0  0  0
  -20.2057  -26.1821    4.7372 C   0  0  0  0  0  0
  -19.0013  -25.7791    2.5543 C   0  0  0  0  0  0
  -20.1645  -25.6427    3.3299 C   0  0  0  0  0  0
  -20.0437  -24.5471    0.7475 C   0  0  0  0  0  0
  -18.9438  -25.2342    1.2682 C   0  0  0  0  0  0
  -21.2710  -24.9604    2.7950 C   0  0  0  0  0  0
  -22.2948  -23.7127    0.9800 O   0  0  0  0  0  0
  -21.2084  -24.4067    1.5083 C   0  0  0  0  0  0
  -23.1519  -23.5900    1.5064 H   0  0  0  0  0  0
  1  9  1  0  0  0
  1  2  2  0  0  0
  1  4  1  0  0  0
  2  6  1  0  0  0
  3  4  1  0  0  0
  3  5  2  0  0  0
  5  7  1  0  0  0
  6  7  2  0  0  0
  7 23  1  0  0  0
  8 16  1  0  0  0
  8 11  2  0  0  0
  8 12  1  0  0  0
  9 10  1  0  0  0
  9 12  2  0  0  0
 10 13  2  0  0  0
 11 13  1  0  0  0
 14 16  2  0  0  0
 14 18  1  0  0  0
 15 17  2  0  0  0
 15 19  1  0  0  0
 16 17  1  0  0  0
 18 19  2  0  0  0
 18 21  1  0  0  0
 19 21  1  0  0  0
 20 21  2  0  0  0
 20 22  1  0  0  0
 23 24  1  0  0  0
 24 26  1  0  0  0
 25 26  2  0  0  0
 25 28  1  0  0  0
 26 29  1  0  0  0
 27 28  2  0  0  0
 27 31  1  0  0  0
 29 31  2  0  0  0
 30 31  1  0  0  0
 30 32  1  0  0  0
M  END
> <s_m_entry_id>
744

> <s_m_entry_name>
10-myco-4-rest_0_lig_gen_fit_add_gna.sdf.10

> <s_m_Source_Path>
C:\Users\maila\Downloads\mgr\myco-analysis

> <s_m_Source_File>
myco-10-var4-wzakresie.mae

> <i_m_Source_File_Index>
41

> <s_user_SMILES>
c1ccc(O)cc1CCC2=CC=C(CC=C2)c(ccc3)cc3-c(c4)ccc(c45)c\5=N/[H]

> <minimizedAffinity>
-10.96667

> <minimizedRMSD>
2.66936

> <CNNscore>
0.612197578

> <CNNaffinity>
6.2729501724

> <CNN_VS>
3.8402848244

> <CNNaffinity_variance>
0.1338064373

$$$$
O1CC12[C@H]([C@@H]2N)CCC[C@H](O3)[C@@]3(O)CC4=Nc(c45)c(N)ncn5
                    3D
 Schrodinger Suite 2021-1.
 28 32  0  0  1  0            999 V2000
    6.4234  -16.8618   -8.8319 O   0  0  0  0  0  0
    5.4484  -17.0684   -9.8142 C   0  0  2  0  0  0
    5.8477  -18.0285  -10.7652 O   0  0  0  0  0  0
    5.8675  -16.6822  -11.1936 C   0  0  1  0  0  0
    6.5834  -17.7478   -8.4195 H   0  0  0  0  0  0
    3.9795  -17.1717   -9.3570 C   0  0  0  0  0  0
    3.3260  -19.9309   -7.3834 C   0  0  0  0  0  0
    2.2693  -21.8956   -6.3404 N   0  0  0  0  0  0
    3.2895  -20.9125   -6.4094 C   0  0  0  0  0  0
    5.2360  -19.8642   -5.4649 C   0  0  0  0  0  0
    5.2396  -18.8973   -6.4400 N   0  0  0  0  0  0
    4.2701  -20.8507   -5.4534 N   0  0  0  0  0  0
    4.2650  -18.9952   -7.3585 C   0  0  0  0  0  0
    2.7631  -19.3340   -8.5568 N   0  0  0  0  0  0
    3.6736  -18.3927   -8.5390 C   0  0  0  0  0  0
    2.2663  -22.6002   -5.5695 H   0  0  0  0  0  0
    1.4868  -21.8778   -7.0212 H   0  0  0  0  0  0
    4.8378  -16.4486  -12.3120 C   0  0  0  0  0  0
    4.1768  -17.7544  -12.7769 C   0  0  0  0  0  0
    4.8979  -18.4093  -13.9613 C   0  0  0  0  0  0
    6.1583  -21.5711  -14.7415 C   0  0  0  0  0  0
    5.8647  -20.8943  -13.5835 O   0  0  0  0  0  0
    3.4724  -20.6456  -16.5694 N   0  0  0  0  0  0
    4.5704  -20.1824  -15.7325 C   0  0  2  0  0  0
    4.7552  -21.0672  -14.4639 C   0  0  3  0  0  0
    4.1051  -19.6429  -14.4416 C   0  0  1  0  0  0
    3.0587  -19.8076  -17.0376 H   0  0  0  0  0  0
    3.8889  -21.2379  -17.3228 H   0  0  0  0  0  0
  1  2  1  0  0  0
  1  5  1  0  0  0
  2  6  1  0  0  0
  2  3  1  0  0  0
  2  4  1  0  0  0
  3  4  1  0  0  0
  4 18  1  0  0  0
  6 15  1  0  0  0
  7  9  2  0  0  0
  7 13  1  0  0  0
  7 14  1  0  0  0
  8  9  1  0  0  0
  8 16  1  0  0  0
  8 17  1  0  0  0
  9 12  1  0  0  0
 10 11  1  0  0  0
 10 12  2  0  0  0
 11 13  2  0  0  0
 13 15  1  0  0  0
 14 15  2  0  0  0
 18 19  1  0  0  0
 19 20  1  0  0  0
 20 26  1  0  0  0
 21 22  1  0  0  0
 21 25  1  0  0  0
 22 25  1  0  0  0
 23 24  1  0  0  0
 23 27  1  0  0  0
 23 28  1  0  0  0
 24 25  1  0  0  0
 24 26  1  0  0  0
 25 26  1  0  0  0
M  END
> <s_m_entry_id>
745

> <s_m_entry_name>
10-myco-2_0_lig_gen_fit_add_gna.sdf.3

> <s_m_Source_Path>
C:\Users\maila\Downloads\mgr\myco-analysis

> <s_m_Source_File>
myco-10-var2-wzakresie.mae

> <i_m_Source_File_Index>
1

> <s_user_SMILES>
O1CC12[C@H]([C@@H]2N)CCC[C@H](O3)[C@@]3(O)CC4=Nc(c45)c(N)ncn5

> <minimizedAffinity>
-8.68222

> <minimizedRMSD>
1.38657

> <CNNscore>
0.9893782139

> <CNNaffinity>
6.3989796638

> <CNN_VS>
6.3310112953

> <CNNaffinity_variance>
0.1410547942

$$$$
N1C=NC(=O)[C@@H](C=12)C(=CC=C2)C(=O)NCc(cc3)ccc3[C@@H](CC)N(C4)C5=C4CC[C@@H]([C@@H]56)C6
                    3D
 Schrodinger Suite 2021-1.
 34 39  0  0  1  0            999 V2000
    1.4977  -19.0408  -15.5588 C   0  0  0  0  0  0
    1.9290  -20.3633  -15.3406 C   0  0  0  0  0  0
    3.0093  -18.1919  -13.8375 C   0  0  0  0  0  0
    3.4099  -19.5104  -13.5821 C   0  0  0  0  0  0
    2.8493  -20.5867  -14.2911 C   0  0  0  0  0  0
    2.0204  -17.9719  -14.8125 C   0  0  0  0  0  0
    3.7488  -17.0252  -13.2023 C   0  0  0  0  0  0
    4.9338  -17.6901  -11.0281 C   0  0  0  0  0  0
    5.9636  -18.0454  -11.6650 O   0  0  0  0  0  0
    3.8208  -17.1311  -11.7378 N   0  0  0  0  0  0
    3.0986  -16.6563  -11.1625 H   0  0  0  0  0  0
    3.7495  -18.3853   -8.7129 C   0  0  1  0  0  0
    5.9315  -17.2674   -8.8543 C   0  0  0  0  0  0
    5.9690  -17.3107   -7.3767 C   0  0  0  0  0  0
    4.2272  -18.9220   -7.3695 C   0  0  0  0  0  0
    2.4370  -20.4781   -7.2544 C   0  0  0  0  0  0
    3.5777  -19.8281   -6.7109 N   0  0  0  0  0  0
    2.5037  -19.3451  -10.5522 O   0  0  0  0  0  0
    4.9208  -17.8279   -9.5392 C   0  0  0  0  0  0
    2.0589  -20.2419   -8.4702 N   0  0  0  0  0  0
    2.7787  -19.3570   -9.3263 C   0  0  0  0  0  0
    5.2617  -18.1819   -6.6830 C   0  0  0  0  0  0
    1.4934  -21.4579  -16.3336 C   0  0  2  0  0  0
   -2.6522  -24.0029  -15.2627 C   0  0  0  0  0  0
   -0.1099  -25.3889  -13.8667 C   0  0  0  0  0  0
   -0.7482  -25.8900  -15.1539 C   0  0  2  0  0  0
   -1.4920  -23.1597  -15.6121 C   0  0  0  0  0  0
    0.3637  -24.8207  -15.2057 C   0  0  1  0  0  0
   -2.2505  -25.4980  -15.3910 C   0  0  0  0  0  0
   -1.0963  -21.8553  -16.0017 C   0  0  0  0  0  0
    0.2700  -22.1330  -15.9022 N   0  0  0  0  0  0
   -0.1814  -23.4893  -15.5438 C   0  0  0  0  0  0
    2.5485  -22.5196  -16.6818 C   0  0  0  0  0  0
    3.7170  -22.0033  -17.5263 C   0  0  0  0  0  0
  1  2  2  0  0  0
  1  6  1  0  0  0
  2 23  1  0  0  0
  2  5  1  0  0  0
  3  4  1  0  0  0
  3  7  1  0  0  0
  3  6  2  0  0  0
  4  5  2  0  0  0
  7 10  1  0  0  0
  8  9  2  0  0  0
  8 19  1  0  0  0
  8 10  1  0  0  0
 10 11  1  0  0  0
 12 15  1  0  0  0
 12 19  1  0  0  0
 12 21  1  0  0  0
 13 14  1  0  0  0
 13 19  2  0  0  0
 14 22  2  0  0  0
 15 17  2  0  0  0
 15 22  1  0  0  0
 16 17  1  0  0  0
 16 20  2  0  0  0
 18 21  2  0  0  0
 20 21  1  0  0  0
 23 33  1  0  0  0
 23 31  1  0  0  0
 24 27  1  0  0  0
 24 29  1  0  0  0
 25 26  1  0  0  0
 25 28  1  0  0  0
 26 28  1  0  0  0
 26 29  1  0  0  0
 27 30  1  0  0  0
 27 32  2  0  0  0
 28 32  1  0  0  0
 30 31  1  0  0  0
 31 32  1  0  0  0
 33 34  1  0  0  0
M  END
> <s_m_entry_id>
746

> <s_m_entry_name>
10-myco-2_1_lig_gen_fit_add_gna.sdf.5

> <s_m_Source_Path>
C:\Users\maila\Downloads\mgr\myco-analysis

> <s_m_Source_File>
myco-10-var2-wzakresie.mae

> <i_m_Source_File_Index>
2

> <s_user_SMILES>
N1C=NC(=O)[C@@H](C=12)C(=CC=C2)C(=O)NCc(cc3)ccc3[C@@H](CC)N(C4)C5=C4CC[C@@H]([C@@H]56)C6

> <minimizedAffinity>
-8.34842

> <minimizedRMSD>
1.06723

> <CNNscore>
0.7180226445

> <CNNaffinity>
6.6289229393

> <CNN_VS>
4.7597169876

> <CNNaffinity_variance>
0.1587890685

$$$$
N1CN=c(c=12)cccc2[C@H](O)Cc3ccc(cc3)CN([C@@H]4C)N4[C@H]5[C@@H](O)CCC5
                    3D
 Schrodinger Suite 2021-1.
 31 35  0  0  1  0            999 V2000
    4.4974  -19.2250  -13.4155 C   0  0  0  0  0  0
    4.4899  -17.4541  -11.7592 C   0  0  0  0  0  0
    3.5368  -16.7601  -12.5205 C   0  0  0  0  0  0
    3.4001  -18.6350  -14.0611 C   0  0  0  0  0  0
    5.0485  -18.6282  -12.2817 C   0  0  0  0  0  0
    2.9733  -17.3593  -13.6528 C   0  0  0  0  0  0
    4.6829  -17.1172  -10.2949 C   0  0  0  0  0  0
    2.8026  -18.6948  -10.1014 O   0  0  0  0  0  0
    3.6002  -17.7912   -9.3815 C   0  0  1  0  0  0
    3.3834  -19.4277  -10.4143 H   0  0  0  0  0  0
    4.2402  -20.1448   -6.3738 C   0  0  0  0  0  0
    3.7076  -19.6484   -7.5362 C   0  0  0  0  0  0
    3.7010  -21.2473   -6.0068 N   0  0  0  0  0  0
    5.1812  -19.4533   -5.6439 C   0  0  0  0  0  0
    5.1127  -17.7165   -7.3578 C   0  0  0  0  0  0
    2.7692  -20.4151   -7.9689 N   0  0  0  0  0  0
    4.1606  -18.4285   -8.1068 C   0  0  0  0  0  0
    2.6591  -21.5014   -6.9873 C   0  0  0  0  0  0
    5.5654  -18.2067   -6.1202 C   0  0  0  0  0  0
    2.5973  -19.4401  -15.0473 C   0  0  0  0  0  0
    5.3610  -21.3795  -16.6210 C   0  0  0  0  0  0
    3.4711  -19.8815  -16.1540 N   0  0  1  0  0  0
    3.9782  -21.2121  -16.0044 C   0  0  1  0  0  0
    2.9643  -20.9735  -16.9900 N   0  0  1  0  0  0
    0.5050  -21.1873  -17.5114 C   0  0  2  0  0  0
    1.6775  -21.6201  -16.6118 C   0  0  1  0  0  0
    0.3751  -23.5998  -17.0992 C   0  0  0  0  0  0
   -0.3223  -22.4469  -17.8071 C   0  0  0  0  0  0
    0.9371  -20.5706  -18.7015 O   0  0  0  0  0  0
    1.7909  -23.1237  -16.8331 C   0  0  0  0  0  0
    1.5023  -21.2232  -19.1930 H   0  0  0  0  0  0
  1  4  2  0  0  0
  1  5  1  0  0  0
  2  3  1  0  0  0
  2  5  2  0  0  0
  2  7  1  0  0  0
  3  6  2  0  0  0
  4 20  1  0  0  0
  4  6  1  0  0  0
  7  9  1  0  0  0
  8  9  1  0  0  0
  8 10  1  0  0  0
  9 17  1  0  0  0
 11 12  1  0  0  0
 11 13  2  0  0  0
 11 14  1  0  0  0
 12 16  2  0  0  0
 12 17  1  0  0  0
 13 18  1  0  0  0
 14 19  2  0  0  0
 15 17  2  0  0  0
 15 19  1  0  0  0
 16 18  1  0  0  0
 20 22  1  0  0  0
 21 23  1  0  0  0
 22 23  1  0  0  0
 22 24  1  0  0  0
 23 24  1  0  0  0
 24 26  1  0  0  0
 25 26  1  0  0  0
 25 28  1  0  0  0
 25 29  1  0  0  0
 26 30  1  0  0  0
 27 28  1  0  0  0
 27 30  1  0  0  0
 29 31  1  0  0  0
M  END
> <s_m_entry_id>
747

> <s_m_entry_name>
10-myco-2_1_lig_gen_fit_add_gna.sdf.7

> <s_m_Source_Path>
C:\Users\maila\Downloads\mgr\myco-analysis

> <s_m_Source_File>
myco-10-var2-wzakresie.mae

> <i_m_Source_File_Index>
3

> <s_user_SMILES>
N1CN=c(c=12)cccc2[C@H](O)Cc3ccc(cc3)CN([C@@H]4C)N4[C@H]5[C@@H](O)CCC5

> <minimizedAffinity>
-8.61901

> <minimizedRMSD>
0.72311

> <CNNscore>
0.8720434308

> <CNNaffinity>
6.4056406021

> <CNN_VS>
5.5859966278

> <CNNaffinity_variance>
0.3027564883

$$$$
C[C@@H]1[C@@H](N(C)C2)[C@H]1[C@@H]([C@]23C)[C@H]3CNC(=O)C=4CC=c(c45)nccc5O
                    3D
 Schrodinger Suite 2021-1.
 27 31  0  0  1  0            999 V2000
    3.6935  -17.9397  -10.8718 N   0  0  0  0  0  0
    5.5822  -16.7713  -10.2279 O   0  0  0  0  0  0
    4.6223  -17.5110   -9.8771 C   0  0  0  0  0  0
    2.6960  -18.0685  -10.6036 H   0  0  0  0  0  0
    4.5150  -17.8950   -8.4424 C   0  0  0  0  0  0
    3.7799  -18.8675   -7.8544 C   0  0  0  0  0  0
    2.3859  -19.6583   -9.6972 O   0  0  0  0  0  0
    4.2996  -19.1414   -6.6071 C   0  0  0  0  0  0
    2.9754  -21.0644   -6.3404 C   0  0  0  0  0  0
    5.3313  -18.3933   -6.3328 C   0  0  0  0  0  0
    5.6153  -17.5145   -7.5014 C   0  0  0  0  0  0
    2.8381  -19.7650   -8.3912 C   0  0  0  0  0  0
    2.4322  -20.8599   -7.6126 C   0  0  0  0  0  0
    3.9154  -20.2089   -5.8628 N   0  0  0  0  0  0
    1.8416  -20.3907  -10.1294 H   0  0  0  0  0  0
    4.1322  -18.1455  -12.2526 C   0  0  0  0  0  0
    2.4742  -18.0609  -15.5311 C   0  0  0  0  0  0
    3.4406  -18.8063  -14.5728 C   0  0  1  0  0  0
    1.9088  -21.5422  -16.0180 C   0  0  1  0  0  0
    4.6386  -19.4835  -15.2519 C   0  0  0  0  0  0
    2.9668  -18.6178  -13.1349 C   0  0  1  0  0  0
    2.0383  -20.8763  -14.6060 C   0  0  2  0  0  0
    2.9670  -20.0209  -13.7107 C   0  0  1  0  0  0
    5.1722  -21.1726  -16.9167 C   0  0  0  0  0  0
    4.0959  -20.5000  -16.1805 N   0  0  1  0  0  0
    3.2381  -21.4831  -15.4711 C   0  0  2  0  0  0
    1.2438  -22.9159  -15.9693 C   0  0  0  0  0  0
  1 16  1  0  0  0
  1  3  1  0  0  0
  1  4  1  0  0  0
  2  3  2  0  0  0
  3  5  1  0  0  0
  5  6  2  0  0  0
  5 11  1  0  0  0
  6  8  1  0  0  0
  6 12  1  0  0  0
  7 12  1  0  0  0
  7 15  1  0  0  0
  8 10  2  0  0  0
  8 14  1  0  0  0
  9 13  1  0  0  0
  9 14  2  0  0  0
 10 11  1  0  0  0
 12 13  2  0  0  0
 16 21  1  0  0  0
 17 18  1  0  0  0
 18 20  1  0  0  0
 18 21  1  0  0  0
 18 23  1  0  0  0
 19 22  1  0  0  0
 19 26  1  0  0  0
 19 27  1  0  0  0
 20 25  1  0  0  0
 21 23  1  0  0  0
 22 23  1  0  0  0
 22 26  1  0  0  0
 24 25  1  0  0  0
 25 26  1  0  0  0
M  END
> <s_m_entry_id>
748

> <s_m_entry_name>
10-myco-2_1_lig_gen_fit_add_gna.sdf.10

> <s_m_Source_Path>
C:\Users\maila\Downloads\mgr\myco-analysis

> <s_m_Source_File>
myco-10-var2-wzakresie.mae

> <i_m_Source_File_Index>
4

> <s_user_SMILES>
C[C@@H]1[C@@H](N(C)C2)[C@H]1[C@@H]([C@]23C)[C@H]3CNC(=O)C=4CC=c(c45)nccc5O

> <minimizedAffinity>
-9.39906

> <minimizedRMSD>
1.11406

> <CNNscore>
0.8995732069

> <CNNaffinity>
6.5708146095

> <CNN_VS>
5.9109287262

> <CNNaffinity_variance>
0.0509985462

$$$$
[C@@H]12[C@@H](C1)CN(C2)CCc3ccc(cc3)N[C@]4(O)c(c45)c(O)cc6c5c(O)ncn6
                    3D
 Schrodinger Suite 2021-1.
 33 38  0  0  1  0            999 V2000
    4.4542   18.4191   -8.2429 C   0  0  0  0  0  0
    3.6765   18.3031   -9.4444 C   0  0  0  0  0  0
    6.1734   19.9836   -9.2862 C   0  0  0  0  0  0
    5.6449   19.2569   -8.1645 C   0  0  0  0  0  0
    3.1300   16.7010   -7.2900 C   0  0  0  0  0  0
    2.4604   16.5318   -8.4646 N   0  0  0  0  0  0
    4.1293   17.6208   -7.1916 N   0  0  0  0  0  0
    7.3610   20.6959   -9.2600 O   0  0  0  0  0  0
    2.2006   16.9859  -10.7960 O   0  0  0  0  0  0
    2.7452   17.2919   -9.5568 C   0  0  0  0  0  0
    3.9343   20.9093  -11.9141 O   0  0  0  0  0  0
    4.6512   19.7608  -11.5684 C   0  0  1  0  0  0
    5.3961   19.8495  -10.3899 C   0  0  0  0  0  0
    4.1842   19.0385  -10.4679 C   0  0  0  0  0  0
    7.7383   21.0775  -10.1156 H   0  0  0  0  0  0
    1.7027   16.1188  -10.9270 H   0  0  0  0  0  0
    4.5550   21.4588  -12.4592 H   0  0  0  0  0  0
    5.2017   18.9420  -12.6492 N   0  0  0  0  0  0
    6.2293   18.9986  -12.8372 H   0  0  0  0  0  0
    4.2023   15.9588  -14.6827 C   0  0  0  0  0  0
    2.9051   16.3089  -15.0878 C   0  0  0  0  0  0
    4.4003   18.0453  -13.4433 C   0  0  0  0  0  0
    2.3457   17.5107  -14.6339 C   0  0  0  0  0  0
    4.9436   16.8230  -13.8687 C   0  0  0  0  0  0
    3.0833   18.3687  -13.8191 C   0  0  0  0  0  0
    2.0862   15.3857  -15.9491 C   0  0  0  0  0  0
    0.9343   14.7730  -15.1460 C   0  0  0  0  0  0
   -2.2135   13.7290  -16.7131 C   0  0  1  0  0  0
   -1.5011   14.3909  -17.8726 C   0  0  2  0  0  0
   -1.6465   12.8785  -17.8379 C   0  0  0  0  0  0
   -0.2166   14.9692  -17.3024 C   0  0  0  0  0  0
   -0.3502   14.9804  -15.8396 N   0  0  1  0  0  0
   -1.3248   13.9378  -15.4987 C   0  0  0  0  0  0
  1  2  2  0  0  0
  1  4  1  0  0  0
  1  7  1  0  0  0
  2 10  1  0  0  0
  2 14  1  0  0  0
  3  4  2  0  0  0
  3  8  1  0  0  0
  3 13  1  0  0  0
  5  6  1  0  0  0
  5  7  2  0  0  0
  6 10  2  0  0  0
  8 15  1  0  0  0
  9 10  1  0  0  0
  9 16  1  0  0  0
 11 12  1  0  0  0
 11 17  1  0  0  0
 12 18  1  0  0  0
 12 13  1  0  0  0
 12 14  1  0  0  0
 13 14  2  0  0  0
 18 22  1  0  0  0
 18 19  1  0  0  0
 20 21  2  0  0  0
 20 24  1  0  0  0
 21 23  1  0  0  0
 21 26  1  0  0  0
 22 24  2  0  0  0
 22 25  1  0  0  0
 23 25  2  0  0  0
 26 27  1  0  0  0
 27 32  1  0  0  0
 28 29  1  0  0  0
 28 30  1  0  0  0
 28 33  1  0  0  0
 29 30  1  0  0  0
 29 31  1  0  0  0
 31 32  1  0  0  0
 32 33  1  0  0  0
M  END
> <s_m_entry_id>
749

> <s_m_entry_name>
10-myco-2_3_lig_gen_fit_add_gna.sdf.1

> <s_m_Source_Path>
C:\Users\maila\Downloads\mgr\myco-analysis

> <s_m_Source_File>
myco-10-var2-wzakresie.mae

> <i_m_Source_File_Index>
5

> <s_user_SMILES>
[C@@H]12[C@@H](C1)CN(C2)CCc3ccc(cc3)N[C@]4(O)c(c45)c(O)cc6c5c(O)ncn6

> <minimizedAffinity>
-9.37803

> <minimizedRMSD>
0.79566

> <CNNscore>
0.4586858451

> <CNNaffinity>
6.0287694931

> <CNN_VS>
2.7653112411

> <CNNaffinity_variance>
0.1266813427

$$$$
c12c(o2)cc(=O)c3c1c(N)nc3CNCc4ccc(cc4)CN5[C@@H]([C@@H]56)CC(=C6)N
                    3D
 Schrodinger Suite 2021-1.
 34 39  0  0  1  0            999 V2000
    4.6413   20.2131  -11.1209 C   0  0  0  0  0  0
    2.9642   17.7956  -13.5379 C   0  0  0  0  0  0
    4.4473   19.1578  -12.1729 C   0  0  0  0  0  0
    5.5453   18.4411  -12.6674 C   0  0  0  0  0  0
    3.1560   18.8256  -12.6120 C   0  0  0  0  0  0
    4.0673   17.0874  -14.0506 C   0  0  0  0  0  0
    5.3557   17.4153  -13.5962 C   0  0  0  0  0  0
    3.9217   15.9446  -15.0265 C   0  0  0  0  0  0
    2.6395   14.9414  -16.8223 C   0  0  1  0  0  0
    0.4197   15.3444  -17.5167 C   0  0  0  0  0  0
    1.7535   14.9706  -15.6568 C   0  0  2  0  0  0
    0.3966   15.2189  -16.2054 C   0  0  0  0  0  0
    1.7903   15.2271  -18.0629 C   0  0  0  0  0  0
   -0.7426   15.5472  -18.3196 N   0  0  0  0  0  0
    2.7183   16.0814  -15.8745 N   0  0  1  0  0  0
   -1.6935   15.5784  -17.8904 H   0  0  0  0  0  0
   -0.6520   15.6470  -19.3548 H   0  0  0  0  0  0
    4.2524   19.6707   -9.8094 N   0  0  2  0  0  0
    3.8818   20.4437   -9.2165 H   0  0  0  0  0  0
    5.3834   19.0416   -9.1185 C   0  0  0  0  0  0
    4.1298   17.0775   -6.2044 C   0  0  0  0  0  0
    3.9025   17.5385   -7.5781 C   0  0  0  0  0  0
    1.9537   16.0022   -7.8384 C   0  0  0  0  0  0
    3.2709   16.1133   -5.7924 C   0  0  0  0  0  0
    4.9736   18.4060   -7.8129 C   0  0  0  0  0  0
    2.6917   17.3315   -9.5948 O   0  0  0  0  0  0
    5.7931   18.4472   -6.7228 N   0  0  0  0  0  0
    2.4636   15.1640   -5.3251 O   0  0  0  0  0  0
    2.2717   15.6264   -6.5552 C   0  0  0  0  0  0
    5.9311   17.3336   -4.5402 N   0  0  0  0  0  0
    2.8369   16.9903   -8.3933 C   0  0  0  0  0  0
    5.2720   17.6493   -5.7607 C   0  0  0  0  0  0
    5.5032   16.6849   -3.8440 H   0  0  0  0  0  0
    5.5032   16.6849   -3.8440 H   0  0  0  0  0  0
  1  3  1  0  0  0
  1 18  1  0  0  0
  2  5  2  0  0  0
  2  6  1  0  0  0
  3  4  2  0  0  0
  3  5  1  0  0  0
  4  7  1  0  0  0
  6  8  1  0  0  0
  6  7  2  0  0  0
  8 15  1  0  0  0
  9 11  1  0  0  0
  9 13  1  0  0  0
  9 15  1  0  0  0
 10 12  2  0  0  0
 10 13  1  0  0  0
 10 14  1  0  0  0
 11 12  1  0  0  0
 11 15  1  0  0  0
 14 16  1  0  0  0
 14 17  1  0  0  0
 18 20  1  0  0  0
 18 19  1  0  0  0
 20 25  1  0  0  0
 21 22  1  0  0  0
 21 24  2  0  0  0
 21 32  1  0  0  0
 22 25  2  0  0  0
 22 31  1  0  0  0
 23 29  2  0  0  0
 23 31  1  0  0  0
 24 28  1  0  0  0
 24 29  1  0  0  0
 25 27  1  0  0  0
 26 31  2  0  0  0
 27 32  2  0  0  0
 28 29  1  0  0  0
 30 32  1  0  0  0
 30 33  1  0  0  0
 30 34  1  0  0  0
M  END
> <s_m_entry_id>
750

> <s_m_entry_name>
10-myco-2_3_lig_gen_fit_add_gna.sdf.3

> <s_m_Source_Path>
C:\Users\maila\Downloads\mgr\myco-analysis

> <s_m_Source_File>
myco-10-var2-wzakresie.mae

> <i_m_Source_File_Index>
6

> <s_user_SMILES>
c12c(o2)cc(=O)c3c1c(N)nc3CNCc4ccc(cc4)CN5[C@@H]([C@@H]56)CC(=C6)N

> <minimizedAffinity>
-9.15028

> <minimizedRMSD>
0.52753

> <CNNscore>
0.8888589144

> <CNNaffinity>
6.72752285

> <CNN_VS>
5.979818821

> <CNNaffinity_variance>
0.2422579527

$$$$
O=C(O)C[C@@H](CO)CCCC[C@H]1[C@H]([C@@H]1O)C2=Nc(c23)c(N)ncn3
                    3D
 Schrodinger Suite 2021-1.
 29 31  0  0  1  0            999 V2000
  -25.1705  -19.7497   12.2893 O   0  0  0  0  0  0
  -23.8478  -19.8790   11.8719 C   0  0  1  0  0  0
  -22.8667  -20.0607   13.0199 C   0  0  1  0  0  0
  -23.2756  -21.2570   12.1514 C   0  0  2  0  0  0
  -25.2511  -18.8143   12.6055 H   0  0  0  0  0  0
  -19.6381  -15.9388   12.6122 N   0  0  0  0  0  0
  -19.1046  -17.2006   12.5806 C   0  0  0  0  0  0
  -20.9967  -15.7156   12.7269 C   0  0  0  0  0  0
  -17.7043  -17.3934   12.4658 N   0  0  0  0  0  0
  -21.8857  -16.7630   12.8140 N   0  0  0  0  0  0
  -21.6086  -19.2753   12.8037 C   0  0  0  0  0  0
  -20.2092  -19.5257   12.7130 N   0  0  0  0  0  0
  -21.3335  -17.9881   12.7698 C   0  0  0  0  0  0
  -20.0088  -18.2417   12.6671 C   0  0  0  0  0  0
  -17.0561  -16.5749   12.4503 H   0  0  0  0  0  0
  -17.3208  -18.3490   12.3670 H   0  0  0  0  0  0
  -22.3559  -21.7584   11.0371 C   0  0  0  0  0  0
  -22.8142  -23.1307   10.5419 C   0  0  0  0  0  0
  -21.6554  -23.9341    9.9378 C   0  0  0  0  0  0
  -21.0563  -23.2728    8.6816 C   0  0  0  0  0  0
  -19.9217  -24.1159    8.0232 C   0  0  2  0  0  0
  -20.0877  -22.3621    6.3458 O   0  0  0  0  0  0
  -19.2145  -23.2959    6.9192 C   0  0  0  0  0  0
  -20.5935  -22.8367    5.6404 H   0  0  0  0  0  0
  -20.4740  -25.4215    7.3973 C   0  0  0  0  0  0
  -19.3361  -26.6576    9.1253 O   0  0  0  0  0  0
  -20.6567  -27.8956    7.7298 O   0  0  0  0  0  0
  -20.1026  -26.6840    8.1261 C   0  0  0  0  0  0
  -21.2987  -27.9471    6.9487 H   0  0  0  0  0  0
  1  2  1  0  0  0
  1  5  1  0  0  0
  2  3  1  0  0  0
  2  4  1  0  0  0
  3 11  1  0  0  0
  3  4  1  0  0  0
  4 17  1  0  0  0
  6  7  2  0  0  0
  6  8  1  0  0  0
  7  9  1  0  0  0
  7 14  1  0  0  0
  8 10  2  0  0  0
  9 15  1  0  0  0
  9 16  1  0  0  0
 10 13  1  0  0  0
 11 12  2  0  0  0
 11 13  1  0  0  0
 12 14  1  0  0  0
 13 14  2  0  0  0
 17 18  1  0  0  0
 18 19  1  0  0  0
 19 20  1  0  0  0
 20 21  1  0  0  0
 21 25  1  0  0  0
 21 23  1  0  0  0
 22 23  1  0  0  0
 22 24  1  0  0  0
 25 28  1  0  0  0
 26 28  2  0  0  0
 27 28  1  0  0  0
 27 29  1  0  0  0
M  END
> <s_m_entry_id>
751

> <s_m_entry_name>
10-myco-2_4_lig_gen_fit_add_gna.sdf.2

> <s_m_Source_Path>
C:\Users\maila\Downloads\mgr\myco-analysis

> <s_m_Source_File>
myco-10-var2-wzakresie.mae

> <i_m_Source_File_Index>
7

> <s_user_SMILES>
O=C(O)C[C@@H](CO)CCCC[C@H]1[C@H]([C@@H]1O)C2=Nc(c23)c(N)ncn3

> <minimizedAffinity>
-8.07203

> <minimizedRMSD>
1.21316

> <CNNscore>
0.9795184731

> <CNNaffinity>
6.5136818886

> <CNN_VS>
6.3802719116

> <CNNaffinity_variance>
0.00573629

$$$$
C[C@@H](O)CCC[C@H](C)[C@@]12C(O)([C@@H]2O)[C@]1(O)C3=NC=C(N)OC=C3
                    3D
 Schrodinger Suite 2021-1.
 29 31  0  0  1  0            999 V2000
  -25.1684  -20.2353   12.5521 O   0  0  0  0  0  0
  -22.7640  -20.8065   13.3743 O   0  0  0  0  0  0
  -24.3735  -19.4135   10.4161 C   0  0  2  0  0  0
  -22.7946  -19.8577   12.3600 C   0  0  2  0  0  0
  -24.1923  -19.4611   11.9246 C   0  0  3  0  0  0
  -25.5886  -19.9602   10.0044 O   0  0  0  0  0  0
  -23.2873  -20.3275   10.9855 C   0  0  1  0  0  0
  -25.8016  -19.5696   12.9217 H   0  0  0  0  0  0
  -22.4287  -20.3058   14.1522 H   0  0  0  0  0  0
  -25.5749  -19.8834    9.0170 H   0  0  0  0  0  0
  -19.2674  -18.6741   12.8356 C   0  0  0  0  0  0
  -19.0187  -17.3743   12.8025 C   0  0  0  0  0  0
  -22.0768  -17.4725   12.9221 C   0  0  0  0  0  0
  -17.6943  -16.9453   13.0780 N   0  0  0  0  0  0
  -21.2931  -16.3993   12.8800 C   0  0  0  0  0  0
  -21.7133  -18.8207   12.4601 C   0  0  0  0  0  0
  -19.9622  -16.4029   12.4783 O   0  0  0  0  0  0
  -20.5062  -19.2948   12.5013 N   0  0  0  0  0  0
  -16.9707  -17.5735   13.4933 H   0  0  0  0  0  0
  -17.4573  -15.9657   12.8743 H   0  0  0  0  0  0
  -23.4374  -21.8978   10.8681 C   0  0  1  0  0  0
  -24.8270  -22.5133   10.7006 C   0  0  0  0  0  0
  -22.4183  -22.4208    9.8172 C   0  0  0  0  0  0
  -22.8671  -22.6300    8.3527 C   0  0  0  0  0  0
  -23.1620  -21.3555    7.5397 C   0  0  0  0  0  0
  -23.2029  -21.1208    5.1396 O   0  0  0  0  0  0
  -21.4491  -22.4803    5.9978 C   0  0  0  0  0  0
  -22.3355  -21.2548    6.2358 C   0  0  2  0  0  0
  -23.5677  -20.1989    5.1662 H   0  0  0  0  0  0
  1  5  1  0  0  0
  1  8  1  0  0  0
  2  4  1  0  0  0
  2  9  1  0  0  0
  3  5  1  0  0  0
  3  6  1  0  0  0
  3  7  1  0  0  0
  4 16  1  0  0  0
  4  5  1  0  0  0
  4  7  1  0  0  0
  5  7  1  0  0  0
  6 10  1  0  0  0
  7 21  1  0  0  0
 11 12  2  0  0  0
 11 18  1  0  0  0
 12 14  1  0  0  0
 12 17  1  0  0  0
 13 15  2  0  0  0
 13 16  1  0  0  0
 14 19  1  0  0  0
 14 20  1  0  0  0
 15 17  1  0  0  0
 16 18  2  0  0  0
 21 23  1  0  0  0
 21 22  1  0  0  0
 23 24  1  0  0  0
 24 25  1  0  0  0
 25 28  1  0  0  0
 26 28  1  0  0  0
 26 29  1  0  0  0
 27 28  1  0  0  0
M  END
> <s_m_entry_id>
752

> <s_m_entry_name>
10-myco-2_4_lig_gen_fit_add_gna.sdf.9

> <s_m_Source_Path>
C:\Users\maila\Downloads\mgr\myco-analysis

> <s_m_Source_File>
myco-10-var2-wzakresie.mae

> <i_m_Source_File_Index>
8

> <s_user_SMILES>
C[C@@H](O)CCC[C@H](C)[C@@]12C(O)([C@@H]2O)[C@]1(O)C3=NC=C(N)OC=C3

> <minimizedAffinity>
-8.88542

> <minimizedRMSD>
0.79819

> <CNNscore>
0.8516790271

> <CNNaffinity>
6.2057552338

> <CNN_VS>
5.2853116989

> <CNNaffinity_variance>
0.107069172

$$$$
O1C[C@@H]1[C@@H](N)C#C/C=C\C(O)(O)Cn(cn2)c(c23)ncnc3N
                    3D
 Schrodinger Suite 2021-1.
 29 31  0  0  1  0            999 V2000
  -25.6214  -20.0153   11.8713 O   0  0  0  0  0  0
  -24.2206  -20.0317   11.7728 C   0  0  0  0  0  0
  -23.8508  -19.5408   10.5142 O   0  0  0  0  0  0
  -25.8419  -20.3687   12.7675 H   0  0  0  0  0  0
  -24.4360  -18.7639   10.3160 H   0  0  0  0  0  0
  -23.3438  -22.3077   10.9872 C   0  0  0  0  0  0
  -23.7518  -21.4678   11.9489 C   0  0  0  0  0  0
  -23.2367  -21.9844    9.5849 C   0  0  0  0  0  0
  -23.1256  -21.7867    8.3986 C   0  0  0  0  0  0
  -22.9724  -21.6343    6.9377 C   0  0  2  0  0  0
  -21.6506  -22.1210    6.5471 N   0  0  0  0  0  0
  -20.9234  -21.4350    6.8569 H   0  0  0  0  0  0
  -21.6098  -22.1700    5.5035 H   0  0  0  0  0  0
  -23.2083  -20.2071    6.3840 C   0  0  1  0  0  0
  -24.5672  -19.7674    5.9776 C   0  0  0  0  0  0
  -24.0206  -19.4343    7.2330 O   0  0  0  0  0  0
  -23.6099  -19.1154   12.8771 C   0  0  0  0  0  0
  -21.4830  -17.7433   12.6854 C   0  0  0  0  0  0
  -20.1684  -17.9910   12.5007 C   0  0  0  0  0  0
  -19.2588  -16.9492   12.4034 C   0  0  0  0  0  0
  -19.9524  -19.3065   12.4215 N   0  0  0  0  0  0
  -17.8604  -17.1780   12.2486 N   0  0  0  0  0  0
  -21.0815  -15.4436   12.6539 C   0  0  0  0  0  0
  -21.9690  -16.4824   12.7640 N   0  0  0  0  0  0
  -19.7471  -15.6825   12.4791 N   0  0  0  0  0  0
  -21.1860  -19.8395   12.5897 C   0  0  0  0  0  0
  -22.1647  -18.9037   12.7139 N   0  0  0  0  0  0
  -17.1986  -16.3737   12.1719 H   0  0  0  0  0  0
  -17.4810  -18.1484   12.2553 H   0  0  0  0  0  0
  1  2  1  0  0  0
  1  4  1  0  0  0
  2  3  1  0  0  0
  2  7  1  0  0  0
  2 17  1  0  0  0
  3  5  1  0  0  0
  6  8  1  0  0  0
  6  7  2  0  0  0
  8  9  3  0  0  0
  9 10  1  0  0  0
 10 14  1  0  0  0
 10 11  1  0  0  0
 11 12  1  0  0  0
 11 13  1  0  0  0
 14 15  1  0  0  0
 14 16  1  0  0  0
 15 16  1  0  0  0
 17 27  1  0  0  0
 18 19  2  0  0  0
 18 24  1  0  0  0
 18 27  1  0  0  0
 19 20  1  0  0  0
 19 21  1  0  0  0
 20 22  1  0  0  0
 20 25  2  0  0  0
 21 26  2  0  0  0
 22 28  1  0  0  0
 22 29  1  0  0  0
 23 24  2  0  0  0
 23 25  1  0  0  0
 26 27  1  0  0  0
M  END
> <s_m_entry_id>
753

> <s_m_entry_name>
10-myco-2_5_lig_gen_fit_add_gna.sdf.2

> <s_m_Source_Path>
C:\Users\maila\Downloads\mgr\myco-analysis

> <s_m_Source_File>
myco-10-var2-wzakresie.mae

> <i_m_Source_File_Index>
9

> <s_user_SMILES>
O1C[C@@H]1[C@@H](N)C#C/C=C\C(O)(O)Cn(cn2)c(c23)ncnc3N

> <minimizedAffinity>
-8.65868

> <minimizedRMSD>
1.18459

> <CNNscore>
0.9611780047

> <CNNaffinity>
6.1084508896

> <CNN_VS>
5.8713088036

> <CNNaffinity_variance>
0.1068775505

$$$$
OC[C@H](N)C#C[C@H]1[C@H]2O[C@@](C3([C@@]124)O4)([N@@]3O)C(C=CC5)=C(C5=6)O[C@@H](F)C6N
                    3D
 Schrodinger Suite 2021-1.
 32 37  0  0  1  0            999 V2000
  -25.3444  -19.2034    9.8665 O   0  0  0  0  0  0
  -24.9376  -21.7356   10.1994 C   0  0  2  0  0  0
  -23.8651  -19.3697   12.0641 C   0  0  2  0  0  0
  -24.5326  -20.2556   10.1680 C   0  0  1  0  0  0
  -25.9589  -18.4293   12.1796 O   0  0  0  0  0  0
  -24.4756  -20.5930   12.4269 O   0  0  0  0  0  0
  -24.6625  -18.1778   11.9084 N   0  0  2  0  0  0
  -24.1617  -18.9008   10.6676 C   0  0  3  0  0  0
  -25.2817  -20.8921   11.3453 C   0  0  2  0  0  0
  -26.3069  -17.5427   12.4445 H   0  0  0  0  0  0
  -20.4303  -17.8301   12.3909 C   0  0  0  0  0  0
  -19.5854  -18.9783   12.6678 C   0  0  0  0  0  0
  -21.8466  -17.9532   12.4926 C   0  0  0  0  0  0
  -22.4443  -19.1684   12.4313 C   0  0  0  0  0  0
  -21.5833  -20.3637   12.2532 C   0  0  0  0  0  0
  -21.3068  -15.7330   12.6115 C   0  0  1  0  0  0
  -20.0785  -16.5829   12.4734 C   0  0  0  0  0  0
  -22.3889  -16.6827   12.5993 O   0  0  0  0  0  0
  -18.7323  -16.2078   12.7511 N   0  0  0  0  0  0
  -20.2654  -20.2163   12.1280 C   0  0  0  0  0  0
  -21.2819  -15.0344   13.7886 F   0  0  0  0  0  0
  -18.4595  -16.0219   13.7390 H   0  0  0  0  0  0
  -17.9685  -16.5332   12.1190 H   0  0  0  0  0  0
  -22.9159  -23.4512   10.4655 C   0  0  0  0  0  0
  -23.8007  -22.6404   10.3565 C   0  0  0  0  0  0
  -21.8775  -24.4817   10.5781 C   0  0  1  0  0  0
  -22.1831  -25.3546   11.7119 N   0  0  0  0  0  0
  -21.3762  -26.0011   11.8662 H   0  0  0  0  0  0
  -23.0208  -25.9415   11.4894 H   0  0  0  0  0  0
  -21.7806  -25.2738    9.2614 C   0  0  0  0  0  0
  -20.8124  -26.2822    9.3594 O   0  0  0  0  0  0
  -19.9327  -25.8463    9.2172 H   0  0  0  0  0  0
  1  4  1  0  0  0
  1  8  1  0  0  0
  2  4  1  0  0  0
  2 25  1  0  0  0
  2  9  1  0  0  0
  3 14  1  0  0  0
  3  6  1  0  0  0
  3  7  1  0  0  0
  3  8  1  0  0  0
  4  8  1  0  0  0
  4  9  1  0  0  0
  5  7  1  0  0  0
  5 10  1  0  0  0
  6  9  1  0  0  0
  7  8  1  0  0  0
 11 12  1  0  0  0
 11 13  1  0  0  0
 11 17  2  0  0  0
 12 20  1  0  0  0
 13 14  2  0  0  0
 13 18  1  0  0  0
 14 15  1  0  0  0
 15 20  2  0  0  0
 16 17  1  0  0  0
 16 18  1  0  0  0
 16 21  1  0  0  0
 17 19  1  0  0  0
 19 22  1  0  0  0
 19 23  1  0  0  0
 24 26  1  0  0  0
 24 25  3  0  0  0
 26 30  1  0  0  0
 26 27  1  0  0  0
 27 28  1  0  0  0
 27 29  1  0  0  0
 30 31  1  0  0  0
 31 32  1  0  0  0
M  END
> <s_m_entry_id>
754

> <s_m_entry_name>
10-myco-2_5_lig_gen_fit_add_gna.sdf.5

> <s_m_Source_Path>
C:\Users\maila\Downloads\mgr\myco-analysis

> <s_m_Source_File>
myco-10-var2-wzakresie.mae

> <i_m_Source_File_Index>
10

> <s_user_SMILES>
OC[C@H](N)C#C[C@H]1[C@H]2O[C@@](C3([C@@]124)O4)([N@@]3O)C(C=CC5)=C(C5=6)O[C@@H](F)C6N

> <minimizedAffinity>
-9.74911

> <minimizedRMSD>
0.2773

> <CNNscore>
0.4577165246

> <CNNaffinity>
6.0721578598

> <CNN_VS>
2.7793269157

> <CNNaffinity_variance>
0.0166241713

$$$$
C[C@H](N)CC#CC[C@H](C(=O)O)C=1CN=c(c12)c(N)ncn2
                    3D
 Schrodinger Suite 2021-1.
 26 27  0  0  1  0            999 V2000
  -23.4332  -19.6733   12.5848 C   0  0  1  0  0  0
  -21.4834  -17.9760   12.6635 C   0  0  0  0  0  0
  -21.9851  -19.2094   12.5359 C   0  0  0  0  0  0
  -20.1246  -18.0177   12.5487 C   0  0  0  0  0  0
  -19.6755  -19.1922   12.3194 N   0  0  0  0  0  0
  -22.1349  -16.7899   12.7519 N   0  0  0  0  0  0
  -17.9448  -16.8724   12.5398 N   0  0  0  0  0  0
  -19.3703  -16.8520   12.5876 C   0  0  0  0  0  0
  -21.3916  -15.6349   12.7425 C   0  0  0  0  0  0
  -20.7989  -20.1126   12.3330 C   0  0  0  0  0  0
  -20.0320  -15.6734   12.6730 N   0  0  0  0  0  0
  -17.4281  -17.7756   12.5908 H   0  0  0  0  0  0
  -17.4039  -15.9790   12.5339 H   0  0  0  0  0  0
  -23.9732  -18.7442   10.4380 O   0  0  0  0  0  0
  -24.3309  -18.9354   11.6280 C   0  0  0  0  0  0
  -25.6231  -18.5905   12.0038 O   0  0  0  0  0  0
  -25.9499  -18.7433   12.9479 H   0  0  0  0  0  0
  -23.5695  -21.1950   12.3335 C   0  0  0  0  0  0
  -23.2592  -22.0222    9.8007 C   0  0  0  0  0  0
  -23.3840  -21.6104   10.9293 C   0  0  0  0  0  0
  -23.1480  -22.5815    8.4431 C   0  0  0  0  0  0
  -23.9672  -20.4333    7.4000 C   0  0  0  0  0  0
  -22.8048  -22.1206    6.0585 N   0  0  0  0  0  0
  -22.8667  -21.5043    7.3854 C   0  0  2  0  0  0
  -22.0026  -22.7923    6.0426 H   0  0  0  0  0  0
  -22.5628  -21.3791    5.3609 H   0  0  0  0  0  0
  1  3  1  0  0  0
  1 18  1  0  0  0
  1 15  1  0  0  0
  2  3  2  0  0  0
  2  4  1  0  0  0
  2  6  1  0  0  0
  3 10  1  0  0  0
  4  5  2  0  0  0
  4  8  1  0  0  0
  5 10  1  0  0  0
  6  9  2  0  0  0
  7  8  1  0  0  0
  7 12  1  0  0  0
  7 13  1  0  0  0
  8 11  2  0  0  0
  9 11  1  0  0  0
 14 15  2  0  0  0
 15 16  1  0  0  0
 16 17  1  0  0  0
 18 20  1  0  0  0
 19 21  1  0  0  0
 19 20  3  0  0  0
 21 24  1  0  0  0
 22 24  1  0  0  0
 23 24  1  0  0  0
 23 25  1  0  0  0
 23 26  1  0  0  0
M  END
> <s_m_entry_id>
755

> <s_m_entry_name>
10-myco-2_5_lig_gen_fit_add_gna.sdf.6

> <s_m_Source_Path>
C:\Users\maila\Downloads\mgr\myco-analysis

> <s_m_Source_File>
myco-10-var2-wzakresie.mae

> <i_m_Source_File_Index>
11

> <s_user_SMILES>
C[C@H](N)CC#CC[C@H](C(=O)O)C=1CN=c(c12)c(N)ncn2

> <minimizedAffinity>
-8.42791

> <minimizedRMSD>
1.53052

> <CNNscore>
0.9643498659

> <CNNaffinity>
6.5671172142

> <CNN_VS>
6.3329987526

> <CNNaffinity_variance>
0.0525900908

$$$$
C1CCC1CCNC[C@H]([C@H]2O)[C@H]3OC([C@@]234)(O4)n(cn5)c(c56)ncnc6N
                    3D
 Schrodinger Suite 2021-1.
 30 35  0  0  1  0            999 V2000
  -25.6176  -21.4328   10.4219 C   0  0  1  0  0  0
  -24.6446  -20.5825   11.9778 C   0  0  3  0  0  0
  -24.4474  -19.7443    9.5947 C   0  0  2  0  0  0
  -25.5136  -19.4902   12.0475 O   0  0  0  0  0  0
  -24.6921  -21.2249    9.1815 C   0  0  1  0  0  0
  -25.0143  -21.8897   11.5987 O   0  0  0  0  0  0
  -25.4003  -20.0064   10.7528 C   0  0  1  0  0  0
  -24.9787  -18.8312    8.6635 O   0  0  0  0  0  0
  -25.9434  -19.0285    8.5312 H   0  0  0  0  0  0
  -21.2637  -19.3202   12.4289 C   0  0  0  0  0  0
  -22.6039  -19.1440   12.4316 C   0  0  0  0  0  0
  -20.9935  -17.0389   12.9439 N   0  0  0  0  0  0
  -22.3543  -16.8914   12.9576 C   0  0  0  0  0  0
  -19.0001  -18.3850   12.6895 N   0  0  0  0  0  0
  -20.4180  -18.2460   12.6822 C   0  0  0  0  0  0
  -22.1790  -21.1440   11.8785 C   0  0  0  0  0  0
  -20.9599  -20.5765   12.0609 N   0  0  0  0  0  0
  -23.1769  -17.9470   12.6875 N   0  0  0  0  0  0
  -23.2097  -20.2813   12.0629 N   0  0  0  0  0  0
  -18.3889  -17.5582   12.8715 H   0  0  0  0  0  0
  -18.5621  -19.3187   12.5504 H   0  0  0  0  0  0
  -23.4376  -22.1216    9.1074 C   0  0  0  0  0  0
  -23.2642  -22.5677    7.7223 N   0  0  2  0  0  0
  -23.3411  -23.6084    7.7102 H   0  0  0  0  0  0
  -21.9756  -22.2055    7.1238 C   0  0  0  0  0  0
  -22.2005  -21.7903    5.6673 C   0  0  0  0  0  0
  -23.9039  -19.8484    5.4447 C   0  0  0  0  0  0
  -22.4366  -20.2710    5.5242 C   0  0  0  0  0  0
  -23.6740  -19.3018    4.0435 C   0  0  0  0  0  0
  -22.2225  -19.7536    4.1024 C   0  0  0  0  0  0
  1  5  1  0  0  0
  1  6  1  0  0  0
  1  7  1  0  0  0
  2 19  1  0  0  0
  2  4  1  0  0  0
  2  6  1  0  0  0
  2  7  1  0  0  0
  3  5  1  0  0  0
  3  7  1  0  0  0
  3  8  1  0  0  0
  4  7  1  0  0  0
  5 22  1  0  0  0
  8  9  1  0  0  0
 10 11  2  0  0  0
 10 15  1  0  0  0
 10 17  1  0  0  0
 11 18  1  0  0  0
 11 19  1  0  0  0
 12 13  1  0  0  0
 12 15  2  0  0  0
 13 18  2  0  0  0
 14 15  1  0  0  0
 14 20  1  0  0  0
 14 21  1  0  0  0
 16 17  2  0  0  0
 16 19  1  0  0  0
 22 23  1  0  0  0
 23 25  1  0  0  0
 23 24  1  0  0  0
 25 26  1  0  0  0
 26 28  1  0  0  0
 27 28  1  0  0  0
 27 29  1  0  0  0
 28 30  1  0  0  0
 29 30  1  0  0  0
M  END
> <s_m_entry_id>
756

> <s_m_entry_name>
10-myco-2_5_lig_gen_fit_add_gna.sdf.7

> <s_m_Source_Path>
C:\Users\maila\Downloads\mgr\myco-analysis

> <s_m_Source_File>
myco-10-var2-wzakresie.mae

> <i_m_Source_File_Index>
12

> <s_user_SMILES>
C1CCC1CCNC[C@H]([C@H]2O)[C@H]3OC([C@@]234)(O4)n(cn5)c(c56)ncnc6N

> <minimizedAffinity>
-9.39407

> <minimizedRMSD>
0.45155

> <CNNscore>
0.7039284706

> <CNNaffinity>
6.0031919479

> <CNN_VS>
4.2258176804

> <CNNaffinity_variance>
0.2469140291

$$$$
C1=NC=C1C(=O)Nc(cc(c2)OC)cc2C3=CC=C(C)N([C@@H]34)N4
                    3D
 Schrodinger Suite 2021-1.
 25 28  0  0  1  0            999 V2000
  -24.2636  -20.1933    9.3334 C   0  0  0  0  0  0
  -22.3801  -21.3563   11.0491 C   0  0  0  0  0  0
  -22.9261  -20.0973   11.3672 C   0  0  0  0  0  0
  -23.6247  -21.3845    8.9785 C   0  0  0  0  0  0
  -23.9443  -19.5814   10.5547 C   0  0  0  0  0  0
  -22.7118  -22.0017    9.8480 C   0  0  0  0  0  0
  -21.6326  -23.5143    8.0277 C   0  0  1  0  0  0
  -20.7981  -25.8478    8.8895 C   0  0  0  0  0  0
  -21.3083  -25.6221   10.1050 C   0  0  0  0  0  0
  -21.9274  -24.2871   10.4106 C   0  0  0  0  0  0
  -20.1393  -27.1208    8.4727 C   0  0  0  0  0  0
  -22.0661  -23.2895    9.4798 C   0  0  0  0  0  0
  -20.3288  -23.4042    7.7268 N   0  0  2  0  0  0
  -20.8667  -24.7346    8.0343 N   0  0  0  0  0  0
  -19.7746  -23.1082    8.5617 H   0  0  0  0  0  0
  -20.1919  -20.1013   12.5461 O   0  0  0  0  0  0
  -20.9454  -19.1026   12.5673 C   0  0  0  0  0  0
  -22.3643  -19.2574   12.3983 N   0  0  0  0  0  0
  -22.9649  -18.4873   12.7702 H   0  0  0  0  0  0
  -20.3277  -17.7858   12.7161 C   0  0  0  0  0  0
  -20.7031  -16.5936   13.1267 C   0  0  0  0  0  0
  -19.0169  -17.2395   12.4142 C   0  0  0  0  0  0
  -19.4133  -16.0737   12.8075 N   0  0  0  0  0  0
  -26.4425  -19.0873    8.7911 C   0  0  0  0  0  0
  -25.1770  -19.6311    8.4299 O   0  0  0  0  0  0
  1  4  2  0  0  0
  1  5  1  0  0  0
  1 25  1  0  0  0
  2  3  1  0  0  0
  2  6  2  0  0  0
  3  5  2  0  0  0
  3 18  1  0  0  0
  4  6  1  0  0  0
  6 12  1  0  0  0
  7 12  1  0  0  0
  7 13  1  0  0  0
  7 14  1  0  0  0
  8  9  2  0  0  0
  8 11  1  0  0  0
  8 14  1  0  0  0
  9 10  1  0  0  0
 10 12  2  0  0  0
 13 14  1  0  0  0
 13 15  1  0  0  0
 16 17  2  0  0  0
 17 20  1  0  0  0
 17 18  1  0  0  0
 18 19  1  0  0  0
 20 21  2  0  0  0
 20 22  1  0  0  0
 21 23  1  0  0  0
 22 23  2  0  0  0
 24 25  1  0  0  0
M  END
> <s_m_entry_id>
757

> <s_m_entry_name>
10-myco-2_32_lig_gen_fit_add_gna.sdf.2

> <s_m_Source_Path>
C:\Users\maila\Downloads\mgr\myco-analysis

> <s_m_Source_File>
myco-10-var2-wzakresie.mae

> <i_m_Source_File_Index>
13

> <s_user_SMILES>
C1=NC=C1C(=O)Nc(cc(c2)OC)cc2C3=CC=C(C)N([C@@H]34)N4

> <minimizedAffinity>
-8.7293

> <minimizedRMSD>
0.60759

> <CNNscore>
0.8480167985

> <CNNaffinity>
6.4442534447

> <CNN_VS>
5.4648351669

> <CNNaffinity_variance>
0.1222907528

$$$$
c1cnccc1[C@H](O)Cc2cc(cc(c2)OC)C(C3)=CC(O)=C3C
                    3D
 Schrodinger Suite 2021-1.
 26 28  0  0  1  0            999 V2000
  -23.7830  -21.0802    8.5001 C   0  0  0  0  0  0
  -22.9326  -21.7529    9.3948 C   0  0  0  0  0  0
  -24.2594  -19.4245   10.1980 C   0  0  0  0  0  0
  -22.7405  -21.2185   10.6726 C   0  0  0  0  0  0
  -24.5082  -19.9608    8.9239 C   0  0  0  0  0  0
  -23.2823  -19.9807   11.0368 C   0  0  0  0  0  0
  -21.3085  -25.1326    9.1991 C   0  0  0  0  0  0
  -21.7299  -23.3417    7.8742 C   0  0  0  0  0  0
  -20.8939  -26.4795    9.6721 C   0  0  0  0  0  0
  -22.2514  -23.0255    9.0533 C   0  0  0  0  0  0
  -21.1058  -24.6458    7.9894 C   0  0  0  0  0  0
  -20.3762  -25.2738    6.9865 O   0  0  0  0  0  0
  -21.9920  -24.1244   10.0450 C   0  0  0  0  0  0
  -19.9496  -26.1826    7.1201 H   0  0  0  0  0  0
  -25.4794  -19.4207    8.0677 O   0  0  0  0  0  0
  -26.6471  -18.7390    8.5216 C   0  0  0  0  0  0
  -23.0239  -19.3640   12.3975 C   0  0  0  0  0  0
  -20.9592  -20.6639   12.6770 O   0  0  0  0  0  0
  -21.5783  -19.4519   12.9958 C   0  0  1  0  0  0
  -21.5114  -21.3786   13.0905 H   0  0  0  0  0  0
  -20.6606  -18.2762   12.7071 C   0  0  0  0  0  0
  -20.2680  -15.8837   12.7886 C   0  0  0  0  0  0
  -18.9509  -16.0856   12.5303 N   0  0  0  0  0  0
  -18.4422  -17.3356   12.3929 C   0  0  0  0  0  0
  -19.2788  -18.4479   12.5079 C   0  0  0  0  0  0
  -21.1341  -16.9731   12.8941 C   0  0  0  0  0  0
  1  2  2  0  0  0
  1  5  1  0  0  0
  2 10  1  0  0  0
  2  4  1  0  0  0
  3  5  2  0  0  0
  3  6  1  0  0  0
  4  6  2  0  0  0
  5 15  1  0  0  0
  6 17  1  0  0  0
  7  9  1  0  0  0
  7 11  2  0  0  0
  7 13  1  0  0  0
  8 10  2  0  0  0
  8 11  1  0  0  0
 10 13  1  0  0  0
 11 12  1  0  0  0
 12 14  1  0  0  0
 15 16  1  0  0  0
 17 19  1  0  0  0
 18 19  1  0  0  0
 18 20  1  0  0  0
 19 21  1  0  0  0
 21 25  2  0  0  0
 21 26  1  0  0  0
 22 23  1  0  0  0
 22 26  2  0  0  0
 23 24  2  0  0  0
 24 25  1  0  0  0
M  END
> <s_m_entry_id>
758

> <s_m_entry_name>
10-myco-2_32_lig_gen_fit_add_gna.sdf.3

> <s_m_Source_Path>
C:\Users\maila\Downloads\mgr\myco-analysis

> <s_m_Source_File>
myco-10-var2-wzakresie.mae

> <i_m_Source_File_Index>
14

> <s_user_SMILES>
c1cnccc1[C@H](O)Cc2cc(cc(c2)OC)C(C3)=CC(O)=C3C

> <minimizedAffinity>
-9.53259

> <minimizedRMSD>
0.5584

> <CNNscore>
0.9283048511

> <CNNaffinity>
6.5720453262

> <CNN_VS>
6.1008615494

> <CNNaffinity_variance>
0.1296442747

$$$$
C1CN=CC=C1CCC(C=[C]2(C)O)=CC(=C2)c3ccncc3
                    3D
 Schrodinger Suite 2021-1.
 23 25  0  0  1  0            999 V2000
  -22.5642  -20.8004   11.5439 C   0  0  0  0  0  0
  -21.7480  -21.5526   10.7973 C   0  0  0  0  0  0
  -24.0541  -20.8025   11.2517 C   0  0  0  0  0  0
  -25.7132  -21.6240    9.7141 O   0  0  0  0  0  0
  -23.4808  -22.1446    9.1949 C   0  0  0  0  0  0
  -24.4094  -21.1015    9.7680 C   0  0  0  0  0  0
  -22.2551  -22.3591    9.6856 C   0  0  0  0  0  0
  -24.3390  -19.8338    8.9006 C   0  0  0  0  0  0
  -26.3345  -20.9194   10.0329 H   0  0  0  0  0  0
  -21.5057  -23.5698    9.3206 C   0  0  0  0  0  0
  -20.5622  -23.5551    8.2911 C   0  0  0  0  0  0
  -21.0264  -25.9078    9.6858 C   0  0  0  0  0  0
  -21.7300  -24.7559   10.0332 C   0  0  0  0  0  0
  -20.1005  -25.8663    8.6928 N   0  0  0  0  0  0
  -19.8478  -24.7221    8.0038 C   0  0  0  0  0  0
  -22.0796  -20.4237   12.9175 C   0  0  0  0  0  0
  -22.1607  -18.9391   13.2582 C   0  0  0  0  0  0
  -21.1942  -16.7628   12.8156 C   0  0  0  0  0  0
  -19.5544  -18.5782   12.9225 C   0  0  0  0  0  0
  -18.6028  -17.6024   12.2805 C   0  0  0  0  0  0
  -20.9899  -18.0879   12.8236 C   0  0  0  0  0  0
  -18.8655  -16.3404   12.2845 N   0  0  0  0  0  0
  -20.0438  -15.8189   12.9484 C   0  0  0  0  0  0
  1  2  2  0  0  0
  1  3  1  0  0  0
  1 16  1  0  0  0
  2  7  1  0  0  0
  3  6  2  0  0  0
  4  6  1  0  0  0
  4  9  1  0  0  0
  5  6  1  0  0  0
  5  7  2  0  0  0
  6  8  1  0  0  0
  7 10  1  0  0  0
 10 11  2  0  0  0
 10 13  1  0  0  0
 11 15  1  0  0  0
 12 13  2  0  0  0
 12 14  1  0  0  0
 14 15  2  0  0  0
 16 17  1  0  0  0
 17 21  1  0  0  0
 18 21  2  0  0  0
 18 23  1  0  0  0
 19 20  1  0  0  0
 19 21  1  0  0  0
 20 22  1  0  0  0
 22 23  2  0  0  0
M  END
> <s_m_entry_id>
759

> <s_m_entry_name>
10-myco-2_32_lig_gen_fit_add_gna.sdf.5

> <s_m_Source_Path>
C:\Users\maila\Downloads\mgr\myco-analysis

> <s_m_Source_File>
myco-10-var2-wzakresie.mae

> <i_m_Source_File_Index>
15

> <s_user_SMILES>
C1CN=CC=C1CCC(C=[C]2(C)O)=CC(=C2)c3ccncc3

> <minimizedAffinity>
-9.13898

> <minimizedRMSD>
0.48691

> <CNNscore>
0.4382909238

> <CNNaffinity>
6.104300499

> <CNN_VS>
2.6754596233

> <CNNaffinity_variance>
0.0273015946

$$$$
c1cnccc1[C@H](O)Cc2cc(cc(c2)O)C3=CC(Cl)=CC3
                    3D
 Schrodinger Suite 2021-1.
 24 26  0  0  1  0            999 V2000
  -24.2486  -20.3205    8.9883 C   0  0  0  0  0  0
  -24.0605  -19.7229   10.2408 C   0  0  0  0  0  0
  -23.0912  -20.2180   11.1312 C   0  0  0  0  0  0
  -25.2071  -19.8352    8.1016 O   0  0  0  0  0  0
  -23.4720  -21.4196    8.6200 C   0  0  0  0  0  0
  -22.6043  -22.0186    9.5447 C   0  0  0  0  0  0
  -22.4581  -21.4363   10.8130 C   0  0  0  0  0  0
  -25.8370  -19.0848    8.3574 H   0  0  0  0  0  0
  -21.8700  -23.2588    9.1935 C   0  0  0  0  0  0
  -21.2193  -25.4164    9.1204 C   0  0  0  0  0  0
  -20.6296  -24.8658    8.0772 C   0  0  0  0  0  0
  -21.9690  -24.4130    9.8454 C   0  0  0  0  0  0
  -20.9762  -23.4186    8.0014 C   0  0  0  0  0  0
  -21.2770  -27.1346    9.4327 Cl  0  0  0  0  0  0
  -22.8663  -19.5135   12.4591 C   0  0  0  0  0  0
  -20.7176  -20.6580   12.6790 O   0  0  0  0  0  0
  -21.4086  -19.4944   13.0236 C   0  0  1  0  0  0
  -21.1850  -21.4020   13.1420 H   0  0  0  0  0  0
  -20.5785  -18.2549   12.7281 C   0  0  0  0  0  0
  -20.3479  -15.8410   12.8415 C   0  0  0  0  0  0
  -18.4341  -17.1577   12.3967 C   0  0  0  0  0  0
  -19.1916  -18.3262   12.5051 C   0  0  0  0  0  0
  -19.0238  -15.9479   12.5648 N   0  0  0  0  0  0
  -21.1389  -16.9897   12.9335 C   0  0  0  0  0  0
  1  2  2  0  0  0
  1  4  1  0  0  0
  1  5  1  0  0  0
  2  3  1  0  0  0
  3 15  1  0  0  0
  3  7  2  0  0  0
  4  8  1  0  0  0
  5  6  2  0  0  0
  6  9  1  0  0  0
  6  7  1  0  0  0
  9 12  2  0  0  0
  9 13  1  0  0  0
 10 11  2  0  0  0
 10 12  1  0  0  0
 10 14  1  0  0  0
 11 13  1  0  0  0
 15 17  1  0  0  0
 16 17  1  0  0  0
 16 18  1  0  0  0
 17 19  1  0  0  0
 19 22  2  0  0  0
 19 24  1  0  0  0
 20 23  1  0  0  0
 20 24  2  0  0  0
 21 22  1  0  0  0
 21 23  2  0  0  0
M  END
> <s_m_entry_id>
760

> <s_m_entry_name>
10-myco-2_32_lig_gen_fit_add_gna.sdf.9

> <s_m_Source_Path>
C:\Users\maila\Downloads\mgr\myco-analysis

> <s_m_Source_File>
myco-10-var2-wzakresie.mae

> <i_m_Source_File_Index>
16

> <s_user_SMILES>
c1cnccc1[C@H](O)Cc2cc(cc(c2)O)C3=CC(Cl)=CC3

> <minimizedAffinity>
-9.02197

> <minimizedRMSD>
0.76265

> <CNNscore>
0.7867706418

> <CNNaffinity>
6.16928339

> <CNN_VS>
4.853811264

> <CNNaffinity_variance>
0.0296238475

$$$$
C\C=C(C)\C(=O)[C@@H](C)C1=C(C=C(C1)[C@H]2CO2)c3ccn[nH]3
                    3D
 Schrodinger Suite 2021-1.
 22 24  0  0  1  0            999 V2000
  -25.1587  -19.6928    8.7180 C   0  0  0  0  0  0
  -23.3769  -21.0733    8.9770 C   0  0  0  0  0  0
  -23.4665  -20.3934   10.1284 C   0  0  0  0  0  0
  -24.4147  -20.5807    8.0802 C   0  0  0  0  0  0
  -24.6773  -19.5073   10.0970 C   0  0  0  0  0  0
  -22.4789  -22.2013    8.6173 C   0  0  0  0  0  0
  -21.2900  -24.0422    8.6015 C   0  0  0  0  0  0
  -21.5489  -23.7006    7.3290 N   0  0  0  0  0  0
  -21.8592  -23.1188    9.4518 C   0  0  0  0  0  0
  -22.2614  -22.5873    7.3466 N   0  0  0  0  0  0
  -22.5910  -22.0988    6.4867 H   0  0  0  0  0  0
  -26.4366  -17.7571    7.7028 C   0  0  0  0  0  0
  -26.4310  -18.8729    6.8429 O   0  0  0  0  0  0
  -26.4507  -19.1323    8.2263 C   0  0  1  0  0  0
  -22.5624  -20.5073   11.3432 C   0  0  2  0  0  0
  -23.1216  -21.5970   12.2214 C   0  0  0  0  0  0
  -23.6578  -18.7146   12.4608 O   0  0  0  0  0  0
  -22.5464  -19.2025   12.1331 C   0  0  0  0  0  0
  -19.9992  -19.1105   12.7326 C   0  0  0  0  0  0
  -20.3010  -16.2574   13.1762 C   0  0  0  0  0  0
  -21.4465  -17.1306   12.7928 C   0  0  0  0  0  0
  -21.3236  -18.4395   12.5148 C   0  0  0  0  0  0
  1  4  2  0  0  0
  1 14  1  0  0  0
  1  5  1  0  0  0
  2  6  1  0  0  0
  2  3  2  0  0  0
  2  4  1  0  0  0
  3 15  1  0  0  0
  3  5  1  0  0  0
  6  9  2  0  0  0
  6 10  1  0  0  0
  7  8  2  0  0  0
  7  9  1  0  0  0
  8 10  1  0  0  0
 10 11  1  0  0  0
 12 13  1  0  0  0
 12 14  1  0  0  0
 13 14  1  0  0  0
 15 18  1  0  0  0
 15 16  1  0  0  0
 17 18  2  0  0  0
 18 22  1  0  0  0
 19 22  1  0  0  0
 20 21  1  0  0  0
 21 22  2  0  0  0
M  END
> <s_m_entry_id>
761

> <s_m_entry_name>
10-myco-2_32_lig_gen_fit_add_gna.sdf.10

> <s_m_Source_Path>
C:\Users\maila\Downloads\mgr\myco-analysis

> <s_m_Source_File>
myco-10-var2-wzakresie.mae

> <i_m_Source_File_Index>
17

> <s_user_SMILES>
C\C=C(C)\C(=O)[C@@H](C)C1=C(C=C(C1)[C@H]2CO2)c3ccn[nH]3

> <minimizedAffinity>
-8.11171

> <minimizedRMSD>
0.34976

> <CNNscore>
0.807046771

> <CNNaffinity>
6.4913749695

> <CNN_VS>
5.238843441

> <CNNaffinity_variance>
0.1448670328

$$$$
CC[C]1(O)=CC=C(C=C1)C[C](O)(C=CC2)=C3C=2C4=C3C45C6=C5N=C6N
                    3D
 Schrodinger Suite 2021-1.
 29 34  0  0  1  0            999 V2000
  -20.2759   17.7973  -12.0636 C   0  0  0  0  0  0
  -24.2759   19.3580  -10.2690 C   0  0  0  0  0  0
  -23.9907   21.7558   -8.9248 C   0  0  0  0  0  0
  -21.5040   19.1184  -12.6247 C   0  0  0  0  0  0
  -24.3801   19.3047   -8.9670 C   0  0  0  0  0  0
  -24.1711   20.7414  -11.2615 C   0  0  0  0  0  0
  -24.2544   20.5953   -8.2833 C   0  0  0  0  0  0
  -20.1315   19.1767  -12.5887 N   0  0  0  0  0  0
  -23.6215   21.9190  -10.4055 C   0  0  0  0  0  0
  -19.3919   16.7511  -11.6843 N   0  0  0  0  0  0
  -23.3081   19.9046  -12.0496 C   0  0  0  0  0  0
  -23.4370   18.8295  -11.3213 C   0  0  0  0  0  0
  -21.7183   17.9897  -12.1814 C   0  0  0  0  0  0
  -24.2710   23.0776  -10.8523 O   0  0  0  0  0  0
  -22.8106   18.7209  -12.5449 C   0  0  0  0  0  0
  -19.7751   15.8073  -11.4683 H   0  0  0  0  0  0
  -18.3603   16.9074  -11.6914 H   0  0  0  0  0  0
  -23.9981   23.2419  -11.7890 H   0  0  0  0  0  0
  -22.0796   22.1184  -10.5185 C   0  0  0  0  0  0
  -22.0132   24.7011  -10.3144 C   0  0  0  0  0  0
  -20.7507   25.7971   -8.4699 C   0  0  0  0  0  0
  -21.6759   25.8237   -9.6710 C   0  0  0  0  0  0
  -20.9340   24.4760   -7.6788 C   0  0  0  0  0  0
  -21.0246   23.2845   -8.5919 C   0  0  0  0  0  0
  -21.6199   23.3725   -9.7949 C   0  0  0  0  0  0
  -19.4366   25.8399   -8.9641 O   0  0  0  0  0  0
  -18.8111   25.8586   -8.1926 H   0  0  0  0  0  0
  -20.9889   27.0489   -7.5768 C   0  0  0  0  0  0
  -22.4355   27.2436   -7.1039 C   0  0  0  0  0  0
  1  8  2  0  0  0
  1 10  1  0  0  0
  1 13  1  0  0  0
  2  5  2  0  0  0
  2  6  1  0  0  0
  2 12  1  0  0  0
  3  7  2  0  0  0
  3  9  1  0  0  0
  4  8  1  0  0  0
  4 13  2  0  0  0
  4 15  1  0  0  0
  5  7  1  0  0  0
  6  9  2  0  0  0
  6 11  1  0  0  0
  9 19  1  0  0  0
  9 14  1  0  0  0
 10 16  1  0  0  0
 10 17  1  0  0  0
 11 12  2  0  0  0
 11 15  1  0  0  0
 12 15  1  0  0  0
 13 15  1  0  0  0
 14 18  1  0  0  0
 19 25  1  0  0  0
 20 22  2  0  0  0
 20 25  1  0  0  0
 21 22  1  0  0  0
 21 23  2  0  0  0
 21 28  1  0  0  0
 21 26  1  0  0  0
 23 24  1  0  0  0
 24 25  2  0  0  0
 26 27  1  0  0  0
 28 29  1  0  0  0
M  END
> <s_m_entry_id>
762

> <s_m_entry_name>
10-myco-2_35_lig_gen_fit_add_gna.sdf.4

> <s_m_Source_Path>
C:\Users\maila\Downloads\mgr\myco-analysis

> <s_m_Source_File>
myco-10-var2-wzakresie.mae

> <i_m_Source_File_Index>
18

> <s_user_SMILES>
CC[C]1(O)=CC=C(C=C1)C[C](O)(C=CC2)=C3C=2C4=C3C45C6=C5N=C6N

> <minimizedAffinity>
-8.69681

> <minimizedRMSD>
0.72351

> <CNNscore>
0.672845602

> <CNNaffinity>
6.4002141953

> <CNN_VS>
4.3063559532

> <CNNaffinity_variance>
0.1286422759

$$$$
C=C(N)\N=C\c(cc1)cc(c12)n(cc2)Cc3ccc(cc3)OCN
                    3D
 Schrodinger Suite 2021-1.
 28 30  0  0  1  0            999 V2000
  -24.7540   20.3143  -10.7445 C   0  0  0  0  0  0
  -22.5291   19.1303  -12.0645 C   0  0  0  0  0  0
  -25.6913   21.1428  -10.2167 C   0  0  0  0  0  0
  -22.4259   20.4643  -11.5683 C   0  0  0  0  0  0
  -24.8029   19.0687  -11.2574 C   0  0  0  0  0  0
  -23.5725   21.0318  -10.9187 C   0  0  0  0  0  0
  -23.7574   18.5600  -11.8633 C   0  0  0  0  0  0
  -23.7507   22.2898  -10.4888 N   0  0  0  0  0  0
  -25.0388   22.3533  -10.0608 C   0  0  0  0  0  0
  -21.4357   17.0760  -12.2486 N   0  0  0  0  0  0
  -21.3738   18.3467  -12.4442 C   0  0  0  0  0  0
  -20.4016   16.1275  -12.4445 C   0  0  0  0  0  0
  -20.7368   14.9807  -13.0042 C   0  0  0  0  0  0
  -19.0491   16.3702  -12.0320 N   0  0  0  0  0  0
  -18.3286   15.6167  -12.0748 H   0  0  0  0  0  0
  -18.7370   17.2962  -11.6716 H   0  0  0  0  0  0
  -22.8064   23.4016  -10.6006 C   0  0  0  0  0  0
  -22.2824   23.8642   -9.2620 C   0  0  0  0  0  0
  -21.6991   24.8584   -6.6876 C   0  0  0  0  0  0
  -21.7714   25.7261   -7.7820 C   0  0  0  0  0  0
  -22.1397   22.9853   -8.1735 C   0  0  0  0  0  0
  -22.0772   25.2373   -9.0549 C   0  0  0  0  0  0
  -21.8517   23.4768   -6.8977 C   0  0  0  0  0  0
  -21.5003   25.4051   -5.4119 O   0  0  0  0  0  0
  -22.0607   24.8679   -4.2159 C   0  0  0  0  0  0
  -21.5521   25.6080   -3.0692 N   0  0  0  0  0  0
  -21.9494   25.1710   -2.2061 H   0  0  0  0  0  0
  -20.5168   25.4671   -3.0294 H   0  0  0  0  0  0
  1  3  1  0  0  0
  1  5  2  0  0  0
  1  6  1  0  0  0
  2  4  1  0  0  0
  2  7  2  0  0  0
  2 11  1  0  0  0
  3  9  2  0  0  0
  4  6  2  0  0  0
  5  7  1  0  0  0
  6  8  1  0  0  0
  8 17  1  0  0  0
  8  9  1  0  0  0
 10 12  1  0  0  0
 10 11  2  0  0  0
 12 13  2  0  0  0
 12 14  1  0  0  0
 14 15  1  0  0  0
 14 16  1  0  0  0
 17 18  1  0  0  0
 18 21  2  0  0  0
 18 22  1  0  0  0
 19 20  1  0  0  0
 19 24  1  0  0  0
 19 23  2  0  0  0
 20 22  2  0  0  0
 21 23  1  0  0  0
 24 25  1  0  0  0
 25 26  1  0  0  0
 26 27  1  0  0  0
 26 28  1  0  0  0
M  END
> <s_m_entry_id>
763

> <s_m_entry_name>
10-myco-2_35_lig_gen_fit_add_gna.sdf.8

> <s_m_Source_Path>
C:\Users\maila\Downloads\mgr\myco-analysis

> <s_m_Source_File>
myco-10-var2-wzakresie.mae

> <i_m_Source_File_Index>
19

> <s_user_SMILES>
C=C(N)\N=C\c(cc1)cc(c12)n(cc2)Cc3ccc(cc3)OCN

> <minimizedAffinity>
-8.18666

> <minimizedRMSD>
0.93777

> <CNNscore>
0.8641853929

> <CNNaffinity>
6.3053541183

> <CNN_VS>
5.4489951134

> <CNNaffinity_variance>
0.3119699061

$$$$
c1cccc(CC)c1C/C=C/C2=C(C2=3)CC3Cc4cccnn4
                    3D
 Schrodinger Suite 2021-1.
 23 26  0  0  1  0            999 V2000
  -23.5011  -19.2912   11.8434 C   0  0  0  0  0  0
  -23.4691  -20.1437   10.8475 C   0  0  0  0  0  0
  -23.7964  -20.8993    9.7645 C   0  0  0  0  0  0
  -24.6835  -20.0860   10.3353 C   0  0  0  0  0  0
  -25.1215  -19.1275   11.2944 C   0  0  0  0  0  0
  -23.4429  -21.8701    8.7500 C   0  0  0  0  0  0
  -22.6421  -22.9024    9.0122 C   0  0  0  0  0  0
  -22.2282  -23.8629    7.9348 C   0  0  0  0  0  0
  -20.8583  -23.5149    7.4084 C   0  0  0  0  0  0
  -19.3297  -22.1248    6.1291 C   0  0  0  0  0  0
  -18.2408  -22.7356    6.7499 C   0  0  0  0  0  0
  -19.7475  -24.1733    7.9624 C   0  0  0  0  0  0
  -20.6458  -22.5280    6.4072 C   0  0  0  0  0  0
  -18.4488  -23.7830    7.6403 C   0  0  0  0  0  0
  -21.7586  -21.9759    5.5359 C   0  0  0  0  0  0
  -21.7625  -20.4504    5.4730 C   0  0  0  0  0  0
  -22.6339  -18.9379   12.9815 C   0  0  0  0  0  0
  -21.5062  -16.7216   12.6870 C   0  0  0  0  0  0
  -21.4407  -18.1136   12.6221 C   0  0  0  0  0  0
  -19.1447  -16.6343   12.2761 C   0  0  0  0  0  0
  -20.2425  -18.7079   12.3820 N   0  0  0  0  0  0
  -20.3463  -15.9760   12.5281 C   0  0  0  0  0  0
  -19.1305  -17.9910   12.2036 N   0  0  0  0  0  0
  1 17  1  0  0  0
  1  2  2  0  0  0
  1  5  1  0  0  0
  2  3  1  0  0  0
  2  4  1  0  0  0
  3  6  1  0  0  0
  3  4  2  0  0  0
  4  5  1  0  0  0
  6  7  2  0  0  0
  7  8  1  0  0  0
  8  9  1  0  0  0
  9 12  2  0  0  0
  9 13  1  0  0  0
 10 11  1  0  0  0
 10 13  2  0  0  0
 11 14  2  0  0  0
 12 14  1  0  0  0
 13 15  1  0  0  0
 15 16  1  0  0  0
 17 19  1  0  0  0
 18 19  2  0  0  0
 18 22  1  0  0  0
 19 21  1  0  0  0
 20 22  2  0  0  0
 20 23  1  0  0  0
 21 23  2  0  0  0
M  END
> <s_m_entry_id>
764

> <s_m_entry_name>
10-myco-2_37_lig_gen_fit_add_gna.sdf.3

> <s_m_Source_Path>
C:\Users\maila\Downloads\mgr\myco-analysis

> <s_m_Source_File>
myco-10-var2-wzakresie.mae

> <i_m_Source_File_Index>
20

> <s_user_SMILES>
c1cccc(CC)c1C/C=C/C2=C(C2=3)CC3Cc4cccnn4

> <minimizedAffinity>
-8.59913

> <minimizedRMSD>
1.1019

> <CNNscore>
0.7618879676

> <CNNaffinity>
6.2875318527

> <CNN_VS>
4.790394783

> <CNNaffinity_variance>
0.1043181792

$$$$
c1cccc(C)c1CC(=CC=C2)[C@H](C2=3)C=C(C3)c4ccc(cn4)N
                    3D
 Schrodinger Suite 2021-1.
 26 29  0  0  1  0            999 V2000
  -22.3193  -19.2908   12.1432 C   0  0  0  0  0  0
  -23.5262  -21.1973   11.7144 C   0  0  1  0  0  0
  -24.7873  -22.2221    9.9132 C   0  0  0  0  0  0
  -22.2240  -20.6132   12.0560 C   0  0  0  0  0  0
  -25.5912  -20.0544   10.7649 C   0  0  0  0  0  0
  -24.3122  -19.9590   11.4469 C   0  0  0  0  0  0
  -23.6457  -18.8584   11.7415 C   0  0  0  0  0  0
  -25.8531  -21.1969   10.1238 C   0  0  0  0  0  0
  -23.5897  -22.1169   10.5239 C   0  0  0  0  0  0
  -18.7878  -17.1086   12.8068 C   0  0  0  0  0  0
  -18.7980  -18.4620   12.5662 C   0  0  0  0  0  0
  -19.9611  -19.0969   12.4025 N   0  0  0  0  0  0
  -21.1490  -18.4565   12.3624 C   0  0  0  0  0  0
  -17.5551  -16.5180   13.1534 N   0  0  0  0  0  0
  -19.9861  -16.3809   12.7245 C   0  0  0  0  0  0
  -21.1870  -17.0603   12.4771 C   0  0  0  0  0  0
  -16.7887  -16.6265   12.4642 H   0  0  0  0  0  0
  -17.2774  -16.5142   14.1564 H   0  0  0  0  0  0
  -22.4502  -23.0895   10.2905 C   0  0  0  0  0  0
  -21.4317  -24.7365    8.7273 C   0  0  0  0  0  0
  -21.1187  -24.3463    6.3669 C   0  0  0  0  0  0
  -21.8036  -23.1386    6.4744 C   0  0  0  0  0  0
  -22.9677  -21.3519    7.7461 C   0  0  0  0  0  0
  -20.9132  -25.1309    7.4960 C   0  0  0  0  0  0
  -22.1373  -23.5250    8.8666 C   0  0  0  0  0  0
  -22.2854  -22.6913    7.7179 C   0  0  0  0  0  0
  1 13  1  0  0  0
  1  4  2  0  0  0
  1  7  1  0  0  0
  2  4  1  0  0  0
  2  6  1  0  0  0
  2  9  1  0  0  0
  3  8  1  0  0  0
  3  9  2  0  0  0
  5  6  1  0  0  0
  5  8  2  0  0  0
  6  7  2  0  0  0
  9 19  1  0  0  0
 10 11  2  0  0  0
 10 14  1  0  0  0
 10 15  1  0  0  0
 11 12  1  0  0  0
 12 13  2  0  0  0
 13 16  1  0  0  0
 14 17  1  0  0  0
 14 18  1  0  0  0
 15 16  2  0  0  0
 19 25  1  0  0  0
 20 24  2  0  0  0
 20 25  1  0  0  0
 21 22  2  0  0  0
 21 24  1  0  0  0
 22 26  1  0  0  0
 23 26  1  0  0  0
 25 26  2  0  0  0
M  END
> <s_m_entry_id>
765

> <s_m_entry_name>
10-myco-2_37_lig_gen_fit_add_gna.sdf.5

> <s_m_Source_Path>
C:\Users\maila\Downloads\mgr\myco-analysis

> <s_m_Source_File>
myco-10-var2-wzakresie.mae

> <i_m_Source_File_Index>
21

> <s_user_SMILES>
c1cccc(C)c1CC(=CC=C2)[C@H](C2=3)C=C(C3)c4ccc(cn4)N

> <minimizedAffinity>
-10.51122

> <minimizedRMSD>
0.52671

> <CNNscore>
0.8876678348

> <CNNaffinity>
7.0129137039

> <CNN_VS>
6.2251377106

> <CNNaffinity_variance>
0.1315541565

$$$$
c1cccc(c1C)N(C2)C=CC=C2C3=C(C3=4)NC(N)=NN4
                    3D
 Schrodinger Suite 2021-1.
 24 27  0  0  1  0            999 V2000
  -22.8699  -20.9897   11.8381 C   0  0  0  0  0  0
  -25.3602  -19.8376   11.0481 C   0  0  0  0  0  0
  -23.0996  -19.5019   11.8925 C   0  0  0  0  0  0
  -24.2889  -18.9749   11.5919 C   0  0  0  0  0  0
  -23.7813  -21.6417   10.9004 N   0  0  0  0  0  0
  -25.0996  -21.1045   10.6962 C   0  0  0  0  0  0
  -21.9040  -18.7142   12.1492 C   0  0  0  0  0  0
  -18.8847  -16.9358   12.8105 C   0  0  0  0  0  0
  -19.4069  -19.3233   12.7181 N   0  0  0  0  0  0
  -20.2598  -16.4976   12.4338 N   0  0  0  0  0  0
  -17.8436  -16.0112   12.9533 N   0  0  0  0  0  0
  -21.0501  -17.6516   12.3013 C   0  0  0  0  0  0
  -18.5341  -18.2226   12.9116 N   0  0  0  0  0  0
  -20.5709  -18.9235   12.4527 C   0  0  0  0  0  0
  -20.5768  -15.5172   12.2708 H   0  0  0  0  0  0
  -17.2934  -16.0211   13.8365 H   0  0  0  0  0  0
  -17.2691  -15.9470   12.0952 H   0  0  0  0  0  0
  -22.9869  -22.7375    8.8236 C   0  0  0  0  0  0
  -21.8976  -24.9065    8.9781 C   0  0  0  0  0  0
  -22.1934  -24.9644   10.3394 C   0  0  0  0  0  0
  -23.3597  -21.5488    7.9854 C   0  0  0  0  0  0
  -23.3006  -22.8010   10.2013 C   0  0  0  0  0  0
  -22.3040  -23.8070    8.2200 C   0  0  0  0  0  0
  -22.8882  -23.9176   10.9478 C   0  0  0  0  0  0
  1  3  1  0  0  0
  1  5  1  0  0  0
  2  4  1  0  0  0
  2  6  2  0  0  0
  3  7  1  0  0  0
  3  4  2  0  0  0
  5 22  1  0  0  0
  5  6  1  0  0  0
  7 12  2  0  0  0
  7 14  1  0  0  0
  8 10  1  0  0  0
  8 11  1  0  0  0
  8 13  2  0  0  0
  9 13  1  0  0  0
  9 14  2  0  0  0
 10 12  1  0  0  0
 10 15  1  0  0  0
 11 16  1  0  0  0
 11 17  1  0  0  0
 12 14  1  0  0  0
 18 21  1  0  0  0
 18 22  2  0  0  0
 18 23  1  0  0  0
 19 20  1  0  0  0
 19 23  2  0  0  0
 20 24  2  0  0  0
 22 24  1  0  0  0
M  END
> <s_m_entry_id>
766

> <s_m_entry_name>
10-myco-2_37_lig_gen_fit_add_gna.sdf.8

> <s_m_Source_Path>
C:\Users\maila\Downloads\mgr\myco-analysis

> <s_m_Source_File>
myco-10-var2-wzakresie.mae

> <i_m_Source_File_Index>
22

> <s_user_SMILES>
c1cccc(c1C)N(C2)C=CC=C2C3=C(C3=4)NC(N)=NN4

> <minimizedAffinity>
-9.22926

> <minimizedRMSD>
0.36359

> <CNNscore>
0.868892312

> <CNNaffinity>
6.3938584328

> <CNN_VS>
5.5555744171

> <CNNaffinity_variance>
0.1367298812

$$$$
NC(=O)c(c1)[nH]c([nH]2)c1cc(c23)ccc3Cc(c4CC)cccc4
                    3D
 Schrodinger Suite 2021-1.
 28 31  0  0  1  0            999 V2000
  -23.2801  -18.0166   12.1560 C   0  0  0  0  0  0
  -19.7543  -17.7603   12.4642 C   0  0  0  0  0  0
  -20.9780  -17.1077   12.5479 C   0  0  0  0  0  0
  -25.2020  -19.4097   11.3381 C   0  0  0  0  0  0
  -24.0344  -21.3658   11.1211 C   0  0  0  0  0  0
  -19.9114  -19.0824   12.2887 N   0  0  0  0  0  0
  -21.8482  -20.4894   11.9397 N   0  0  0  0  0  0
  -21.2339  -19.3061   12.2642 C   0  0  0  0  0  0
  -25.2721  -20.7401   10.9374 C   0  0  0  0  0  0
  -23.1879  -20.4336   11.6921 C   0  0  0  0  0  0
  -23.9255  -19.1941   11.7992 C   0  0  0  0  0  0
  -21.9135  -18.1097   12.3835 C   0  0  0  0  0  0
  -19.1380  -19.7459   12.1006 H   0  0  0  0  0  0
  -21.3061  -21.3723   11.8096 H   0  0  0  0  0  0
  -17.7943  -16.7980   11.5729 O   0  0  0  0  0  0
  -18.4387  -17.1496   12.5907 C   0  0  0  0  0  0
  -17.8190  -17.0944   13.8558 N   0  0  0  0  0  0
  -18.2970  -17.5189   14.6788 H   0  0  0  0  0  0
  -16.8497  -16.7202   13.9329 H   0  0  0  0  0  0
  -23.7417  -22.7893   10.7461 C   0  0  0  0  0  0
  -20.8547  -24.3603    8.8494 C   0  0  0  0  0  0
  -22.6971  -22.9781    9.6536 C   0  0  0  0  0  0
  -22.7706  -22.3457    8.3726 C   0  0  0  0  0  0
  -20.9412  -23.7682    7.5955 C   0  0  0  0  0  0
  -21.8854  -22.7721    7.3549 C   0  0  0  0  0  0
  -21.7247  -23.9744    9.8668 C   0  0  0  0  0  0
  -23.6429  -20.4774    6.7836 C   0  0  0  0  0  0
  -23.7715  -21.2291    8.1162 C   0  0  0  0  0  0
  1 11  2  0  0  0
  1 12  1  0  0  0
  2  3  2  0  0  0
  2  6  1  0  0  0
  2 16  1  0  0  0
  3 12  1  0  0  0
  4  9  2  0  0  0
  4 11  1  0  0  0
  5 20  1  0  0  0
  5  9  1  0  0  0
  5 10  2  0  0  0
  6  8  1  0  0  0
  6 13  1  0  0  0
  7  8  1  0  0  0
  7 10  1  0  0  0
  7 14  1  0  0  0
  8 12  2  0  0  0
 10 11  1  0  0  0
 15 16  2  0  0  0
 16 17  1  0  0  0
 17 18  1  0  0  0
 17 19  1  0  0  0
 20 22  1  0  0  0
 21 24  2  0  0  0
 21 26  1  0  0  0
 22 23  1  0  0  0
 22 26  2  0  0  0
 23 25  2  0  0  0
 23 28  1  0  0  0
 24 25  1  0  0  0
 27 28  1  0  0  0
M  END
> <s_m_entry_id>
767

> <s_m_entry_name>
10-myco-2_37_lig_gen_fit_add_gna.sdf.9

> <s_m_Source_Path>
C:\Users\maila\Downloads\mgr\myco-analysis

> <s_m_Source_File>
myco-10-var2-wzakresie.mae

> <i_m_Source_File_Index>
23

> <s_user_SMILES>
NC(=O)c(c1)[nH]c([nH]2)c1cc(c23)ccc3Cc(c4CC)cccc4

> <minimizedAffinity>
-9.68851

> <minimizedRMSD>
0.30755

> <CNNscore>
0.8910579681

> <CNNaffinity>
6.5269651413

> <CNN_VS>
5.8159041405

> <CNNaffinity_variance>
0.1091582179

$$$$
c1cc(Cl)ccc1CCc2c(F)ccc(c2)-c3cc(N)[nH]c3
                    3D
 Schrodinger Suite 2021-1.
 25 27  0  0  1  0            999 V2000
  -22.3147   20.6216  -11.7536 C   0  0  0  0  0  0
  -22.1035   19.2596  -12.0311 C   0  0  0  0  0  0
  -24.4179   18.8162  -11.4597 C   0  0  0  0  0  0
  -24.5880   20.1517  -11.0896 C   0  0  0  0  0  0
  -23.1719   18.3638  -11.8963 C   0  0  0  0  0  0
  -23.5195   21.0573  -11.1866 C   0  0  0  0  0  0
  -25.7700   20.5488  -10.5684 F   0  0  0  0  0  0
  -18.9162   17.5185  -12.3655 C   0  0  0  0  0  0
  -20.7258   18.7615  -12.2288 C   0  0  0  0  0  0
  -20.2978   17.4494  -12.3563 C   0  0  0  0  0  0
  -18.4937   18.7749  -12.2161 N   0  0  0  0  0  0
  -18.0383   16.4670  -12.7314 N   0  0  0  0  0  0
  -19.5873   19.5405  -12.1428 C   0  0  0  0  0  0
  -17.5071   19.0977  -12.2057 H   0  0  0  0  0  0
  -17.0256   16.5231  -12.4831 H   0  0  0  0  0  0
  -18.3011   15.9077  -13.5633 H   0  0  0  0  0  0
  -23.6579   22.4769  -10.6776 C   0  0  0  0  0  0
  -22.6334   22.8491   -9.5791 C   0  0  0  0  0  0
  -22.8385   20.8570   -5.7303 C   0  0  0  0  0  0
  -22.7690   22.1494   -8.2367 C   0  0  0  0  0  0
  -23.6883   20.4413   -6.7556 C   0  0  0  0  0  0
  -21.9071   22.5456   -7.1972 C   0  0  0  0  0  0
  -21.9536   21.9151   -5.9499 C   0  0  0  0  0  0
  -23.6561   21.0798   -7.9985 C   0  0  0  0  0  0
  -22.8962   20.0589   -4.1695 Cl  0  0  0  0  0  0
  1  2  2  0  0  0
  1  6  1  0  0  0
  2  9  1  0  0  0
  2  5  1  0  0  0
  3  4  1  0  0  0
  3  5  2  0  0  0
  4  6  2  0  0  0
  4  7  1  0  0  0
  6 17  1  0  0  0
  8 10  2  0  0  0
  8 11  1  0  0  0
  8 12  1  0  0  0
  9 10  1  0  0  0
  9 13  2  0  0  0
 11 13  1  0  0  0
 11 14  1  0  0  0
 12 15  1  0  0  0
 12 16  1  0  0  0
 17 18  1  0  0  0
 18 20  1  0  0  0
 19 21  2  0  0  0
 19 23  1  0  0  0
 19 25  1  0  0  0
 20 22  1  0  0  0
 20 24  2  0  0  0
 21 24  1  0  0  0
 22 23  2  0  0  0
M  END
> <s_m_entry_id>
768

> <s_m_entry_name>
10-myco-2_38_lig_gen_fit_add_gna.sdf.4

> <s_m_Source_Path>
C:\Users\maila\Downloads\mgr\myco-analysis

> <s_m_Source_File>
myco-10-var2-wzakresie.mae

> <i_m_Source_File_Index>
24

> <s_user_SMILES>
c1cc(Cl)ccc1CCc2c(F)ccc(c2)-c3cc(N)[nH]c3

> <minimizedAffinity>
-9.43276

> <minimizedRMSD>
0.59318

> <CNNscore>
0.8106504679

> <CNNaffinity>
6.4743080139

> <CNN_VS>
5.2484006882

> <CNNaffinity_variance>
0.1352268755

$$$$
c1ccccc1CC2=Cc(c23)ccc(c3)-c4cnccn4
                    3D
 Schrodinger Suite 2021-1.
 21 24  0  0  1  0            999 V2000
  -22.3201   19.1348  -12.0265 C   0  0  0  0  0  0
  -23.0681   21.2742  -11.3300 C   0  0  0  0  0  0
  -24.7058   21.9673  -10.5762 C   0  0  0  0  0  0
  -24.3018   20.7788  -11.0073 C   0  0  0  0  0  0
  -23.6284   18.6178  -11.7076 C   0  0  0  0  0  0
  -23.3778   22.4758  -10.8813 C   0  0  0  0  0  0
  -22.0482   20.5217  -11.8581 C   0  0  0  0  0  0
  -24.6539   19.4548  -11.1937 C   0  0  0  0  0  0
  -19.9171   18.7456  -12.2654 N   0  0  0  0  0  0
  -21.1797   18.2434  -12.3566 C   0  0  0  0  0  0
  -18.9801   16.6668  -12.8937 C   0  0  0  0  0  0
  -21.3337   16.8937  -12.7170 C   0  0  0  0  0  0
  -18.8219   17.9938  -12.5217 C   0  0  0  0  0  0
  -20.2304   16.1411  -12.9782 N   0  0  0  0  0  0
  -22.5968   23.7338  -10.6685 C   0  0  0  0  0  0
  -22.0584   23.8971   -9.2623 C   0  0  0  0  0  0
  -20.9813   24.2983   -6.6945 C   0  0  0  0  0  0
  -20.7065   25.2064   -7.7184 C   0  0  0  0  0  0
  -22.3027   22.9685   -8.2252 C   0  0  0  0  0  0
  -21.2435   25.0096   -8.9936 C   0  0  0  0  0  0
  -21.7694   23.1759   -6.9502 C   0  0  0  0  0  0
  1 10  1  0  0  0
  1  5  2  0  0  0
  1  7  1  0  0  0
  2  4  1  0  0  0
  2  6  1  0  0  0
  2  7  2  0  0  0
  3  4  1  0  0  0
  3  6  2  0  0  0
  4  8  2  0  0  0
  5  8  1  0  0  0
  6 15  1  0  0  0
  9 10  2  0  0  0
  9 13  1  0  0  0
 10 12  1  0  0  0
 11 13  2  0  0  0
 11 14  1  0  0  0
 12 14  2  0  0  0
 15 16  1  0  0  0
 16 19  2  0  0  0
 16 20  1  0  0  0
 17 18  1  0  0  0
 17 21  2  0  0  0
 18 20  2  0  0  0
 19 21  1  0  0  0
M  END
> <s_m_entry_id>
769

> <s_m_entry_name>
10-myco-2_38_lig_gen_fit_add_gna.sdf.6

> <s_m_Source_Path>
C:\Users\maila\Downloads\mgr\myco-analysis

> <s_m_Source_File>
myco-10-var2-wzakresie.mae

> <i_m_Source_File_Index>
25

> <s_user_SMILES>
c1ccccc1CC2=Cc(c23)ccc(c3)-c4cnccn4

> <minimizedAffinity>
-9.11829

> <minimizedRMSD>
0.32798

> <CNNscore>
0.9351994395

> <CNNaffinity>
6.3761901855

> <CNN_VS>
5.9630093575

> <CNNaffinity_variance>
0.2051424682

$$$$
CC1=CN=C(C1)c(c2)cc(=C)c(c23)=CN=C3CC4=CC=C(C4)N
                    3D
 Schrodinger Suite 2021-1.
 25 28  0  0  1  0            999 V2000
  -23.3517   21.3247  -10.9750 C   0  0  0  0  0  0
  -23.4212   18.7246  -11.9291 C   0  0  0  0  0  0
  -22.2414   20.8384  -11.6281 C   0  0  0  0  0  0
  -22.2466   19.4931  -12.0467 C   0  0  0  0  0  0
  -24.4618   20.5647  -10.7612 C   0  0  0  0  0  0
  -24.5481   19.2528  -11.2625 C   0  0  0  0  0  0
  -23.6170   22.6216  -10.4014 C   0  0  0  0  0  0
  -24.8001   22.6265   -9.8749 N   0  0  0  0  0  0
  -25.3418   21.3220  -10.1127 C   0  0  0  0  0  0
  -25.6329   18.5064  -11.1029 C   0  0  0  0  0  0
  -20.9543   18.8695  -12.3349 C   0  0  0  0  0  0
  -19.1752   17.5016  -12.6741 C   0  0  0  0  0  0
  -19.8798   19.5566  -12.1697 N   0  0  0  0  0  0
  -20.6639   17.4141  -12.5624 C   0  0  0  0  0  0
  -18.2136   16.4025  -12.8602 C   0  0  0  0  0  0
  -18.7896   18.7138  -12.3981 C   0  0  0  0  0  0
  -22.6573   23.7750  -10.3530 C   0  0  0  0  0  0
  -22.0716   24.0211   -8.9885 C   0  0  0  0  0  0
  -20.9049   24.9606   -7.2460 C   0  0  0  0  0  0
  -22.2508   23.2799   -7.8956 C   0  0  0  0  0  0
  -21.5177   23.8787   -6.7951 C   0  0  0  0  0  0
  -21.1700   25.1773   -8.6963 C   0  0  0  0  0  0
  -20.1055   25.8227   -6.4386 N   0  0  0  0  0  0
  -19.9885   25.6408   -5.4175 H   0  0  0  0  0  0
  -19.6474   26.6598   -6.8617 H   0  0  0  0  0  0
  1  3  2  0  0  0
  1  5  1  0  0  0
  1  7  1  0  0  0
  2  4  2  0  0  0
  2  6  1  0  0  0
  3  4  1  0  0  0
  4 11  1  0  0  0
  5  6  1  0  0  0
  5  9  2  0  0  0
  6 10  2  0  0  0
  7 17  1  0  0  0
  7  8  2  0  0  0
  8  9  1  0  0  0
 11 13  2  0  0  0
 11 14  1  0  0  0
 12 14  1  0  0  0
 12 15  1  0  0  0
 12 16  2  0  0  0
 13 16  1  0  0  0
 17 18  1  0  0  0
 18 20  2  0  0  0
 18 22  1  0  0  0
 19 21  2  0  0  0
 19 22  1  0  0  0
 19 23  1  0  0  0
 20 21  1  0  0  0
 23 24  1  0  0  0
 23 25  1  0  0  0
M  END
> <s_m_entry_id>
770

> <s_m_entry_name>
10-myco-2_38_lig_gen_fit_add_gna.sdf.8

> <s_m_Source_Path>
C:\Users\maila\Downloads\mgr\myco-analysis

> <s_m_Source_File>
myco-10-var2-wzakresie.mae

> <i_m_Source_File_Index>
26

> <s_user_SMILES>
CC1=CN=C(C1)c(c2)cc(=C)c(c23)=CN=C3CC4=CC=C(C4)N

> <minimizedAffinity>
-9.65897

> <minimizedRMSD>
0.39279

> <CNNscore>
0.8144317865

> <CNNaffinity>
6.4055175781

> <CNN_VS>
5.2168569565

> <CNNaffinity_variance>
0.123105213

$$$$
C1C=CC=C1CC2=C(F)C(C2=3)=C[C@@H](C3)c4cccnc4
                    3D
 Schrodinger Suite 2021-1.
 20 23  0  0  1  0            999 V2000
  -22.0080   20.3851  -12.0655 C   0  0  0  0  0  0
  -23.0818   20.4328  -11.3245 C   0  0  0  0  0  0
  -23.8045   19.2731  -11.3110 C   0  0  0  0  0  0
  -24.7541   19.8802  -10.3975 C   0  0  0  0  0  0
  -23.3073   18.3405  -12.0611 C   0  0  0  0  0  0
  -22.0496   18.9749  -12.6733 C   0  0  2  0  0  0
  -24.0676   21.0377  -10.4464 C   0  0  0  0  0  0
  -25.8900   19.4557   -9.8003 F   0  0  0  0  0  0
  -20.8376   18.1271  -12.4535 C   0  0  0  0  0  0
  -18.5935   16.4993  -12.4583 C   0  0  0  0  0  0
  -20.9702   16.7520  -12.6485 C   0  0  0  0  0  0
  -19.8628   15.9347  -12.6246 C   0  0  0  0  0  0
  -18.4675   17.8409  -12.2923 N   0  0  0  0  0  0
  -19.5511   18.6595  -12.2752 C   0  0  0  0  0  0
  -24.2787   22.4070   -9.9386 C   0  0  0  0  0  0
  -23.0261   22.9231   -9.3015 C   0  0  0  0  0  0
  -22.1476   23.7105   -9.9041 C   0  0  0  0  0  0
  -22.5464   22.5372   -7.9402 C   0  0  0  0  0  0
  -21.2447   23.2660   -7.8804 C   0  0  0  0  0  0
  -21.0353   23.9354   -9.0026 C   0  0  0  0  0  0
  1  2  2  0  0  0
  1  6  1  0  0  0
  2  3  1  0  0  0
  2  7  1  0  0  0
  3  4  1  0  0  0
  3  5  2  0  0  0
  4  7  2  0  0  0
  4  8  1  0  0  0
  5  6  1  0  0  0
  6  9  1  0  0  0
  7 15  1  0  0  0
  9 11  2  0  0  0
  9 14  1  0  0  0
 10 12  2  0  0  0
 10 13  1  0  0  0
 11 12  1  0  0  0
 13 14  2  0  0  0
 15 16  1  0  0  0
 16 17  2  0  0  0
 16 18  1  0  0  0
 17 20  1  0  0  0
 18 19  1  0  0  0
 19 20  2  0  0  0
M  END
> <s_m_entry_id>
771

> <s_m_entry_name>
10-myco-2_38_lig_gen_fit_add_gna.sdf.10

> <s_m_Source_Path>
C:\Users\maila\Downloads\mgr\myco-analysis

> <s_m_Source_File>
myco-10-var2-wzakresie.mae

> <i_m_Source_File_Index>
27

> <s_user_SMILES>
C1C=CC=C1CC2=C(F)C(C2=3)=C[C@@H](C3)c4cccnc4

> <minimizedAffinity>
-8.96057

> <minimizedRMSD>
0.53717

> <CNNscore>
0.7922328115

> <CNNaffinity>
6.3909511566

> <CNN_VS>
5.0631213188

> <CNNaffinity_variance>
0.113340199

$$$$
c1ccccc1-c(ncc2C3=c24)c4=C(C3)C5=CN=C(C5)N
                    3D
 Schrodinger Suite 2021-1.
 23 27  0  0  1  0            999 V2000
  -23.9244   20.3896  -11.1009 C   0  0  0  0  0  0
  -22.5824   19.6687  -11.7783 C   0  0  0  0  0  0
  -23.3350   22.2056  -10.4357 C   0  0  0  0  0  0
  -22.7991   20.9765  -11.1264 C   0  0  0  0  0  0
  -25.1901   20.3876  -10.7821 C   0  0  0  0  0  0
  -24.5468   19.3333  -11.3996 C   0  0  0  0  0  0
  -24.6945   22.4204  -10.0095 N   0  0  0  0  0  0
  -23.6949   18.4945  -11.9752 C   0  0  0  0  0  0
  -25.7009   21.4677  -10.1875 C   0  0  0  0  0  0
  -19.3847   18.0623  -12.7796 C   0  0  0  0  0  0
  -20.1348   19.9816  -12.0887 C   0  0  0  0  0  0
  -18.9771   19.2315  -12.4288 N   0  0  0  0  0  0
  -20.8562   17.8876  -12.6632 C   0  0  0  0  0  0
  -18.4921   17.0357  -13.1922 N   0  0  0  0  0  0
  -21.2373   19.2746  -12.2523 C   0  0  0  0  0  0
  -18.8795   16.1072  -13.4537 H   0  0  0  0  0  0
  -17.4632   17.2060  -13.2455 H   0  0  0  0  0  0
  -21.6642   23.1180   -8.8524 C   0  0  0  0  0  0
  -20.8885   24.1802   -8.3800 C   0  0  0  0  0  0
  -20.8410   25.3806   -9.0938 C   0  0  0  0  0  0
  -22.3760   23.2431  -10.0528 C   0  0  0  0  0  0
  -21.5635   25.5146  -10.2834 C   0  0  0  0  0  0
  -22.3214   24.4469  -10.7661 C   0  0  0  0  0  0
  1  4  1  0  0  0
  1  5  1  0  0  0
  1  6  2  0  0  0
  2  4  2  0  0  0
  2 15  1  0  0  0
  2  8  1  0  0  0
  3 21  1  0  0  0
  3  4  1  0  0  0
  3  7  2  0  0  0
  5  6  1  0  0  0
  5  9  2  0  0  0
  6  8  1  0  0  0
  7  9  1  0  0  0
 10 12  2  0  0  0
 10 13  1  0  0  0
 10 14  1  0  0  0
 11 12  1  0  0  0
 11 15  2  0  0  0
 13 15  1  0  0  0
 14 16  1  0  0  0
 14 17  1  0  0  0
 18 19  2  0  0  0
 18 21  1  0  0  0
 19 20  1  0  0  0
 20 22  2  0  0  0
 21 23  2  0  0  0
 22 23  1  0  0  0
M  END
> <s_m_entry_id>
772

> <s_m_entry_name>
10-myco-2_39_lig_gen_fit_add_gna.sdf.1

> <s_m_Source_Path>
C:\Users\maila\Downloads\mgr\myco-analysis

> <s_m_Source_File>
myco-10-var2-wzakresie.mae

> <i_m_Source_File_Index>
28

> <s_user_SMILES>
c1ccccc1-c(ncc2C3=c24)c4=C(C3)C5=CN=C(C5)N

> <minimizedAffinity>
-8.78018

> <minimizedRMSD>
0.37701

> <CNNscore>
0.7410593629

> <CNNaffinity>
6.2037200928

> <CNN_VS>
4.5973248482

> <CNNaffinity_variance>
0.2495146543

$$$$
c1ccccc1Cc2cccc(n2)-c3nc(c34)nc(=O)c4
                    3D
 Schrodinger Suite 2021-1.
 21 24  0  0  1  0            999 V2000
  -24.7339   19.1528  -11.2801 C   0  0  0  0  0  0
  -25.0410   20.4093  -10.8850 C   0  0  0  0  0  0
  -23.9716   21.3231  -11.1409 C   0  0  0  0  0  0
  -22.5785   19.5588  -12.0808 C   0  0  0  0  0  0
  -23.6155   18.7327  -11.8202 C   0  0  0  0  0  0
  -22.7928   20.8716  -11.7270 N   0  0  0  0  0  0
  -20.4989   17.9357  -12.4131 C   0  0  0  0  0  0
  -21.2193   19.1210  -12.3498 C   0  0  0  0  0  0
  -18.6739   16.7814  -12.6441 C   0  0  0  0  0  0
  -20.0825   16.6373  -12.4193 C   0  0  0  0  0  0
  -19.3797   18.6837  -12.6118 C   0  0  0  0  0  0
  -17.8874   15.8073  -12.7264 O   0  0  0  0  0  0
  -18.2168   18.0707  -12.7657 N   0  0  0  0  0  0
  -20.0730   19.8260  -12.5371 N   0  0  0  0  0  0
  -24.0714   22.7628  -10.7321 C   0  0  0  0  0  0
  -23.0583   23.0633   -9.6564 C   0  0  0  0  0  0
  -22.0756   22.5503   -7.4931 C   0  0  0  0  0  0
  -21.0845   23.5113   -7.7115 C   0  0  0  0  0  0
  -23.0539   22.3192   -8.4650 C   0  0  0  0  0  0
  -22.0429   24.0101   -9.8791 C   0  0  0  0  0  0
  -21.0668   24.2385   -8.9047 C   0  0  0  0  0  0
  1  2  2  0  0  0
  1  5  1  0  0  0
  2  3  1  0  0  0
  3 15  1  0  0  0
  3  6  2  0  0  0
  4  8  1  0  0  0
  4  5  2  0  0  0
  4  6  1  0  0  0
  7  8  1  0  0  0
  7 10  2  0  0  0
  7 11  1  0  0  0
  8 14  2  0  0  0
  9 10  1  0  0  0
  9 12  2  0  0  0
  9 13  1  0  0  0
 11 13  2  0  0  0
 11 14  1  0  0  0
 15 16  1  0  0  0
 16 19  2  0  0  0
 16 20  1  0  0  0
 17 18  2  0  0  0
 17 19  1  0  0  0
 18 21  1  0  0  0
 20 21  2  0  0  0
M  END
> <s_m_entry_id>
773

> <s_m_entry_name>
10-myco-2_39_lig_gen_fit_add_gna.sdf.2

> <s_m_Source_Path>
C:\Users\maila\Downloads\mgr\myco-analysis

> <s_m_Source_File>
myco-10-var2-wzakresie.mae

> <i_m_Source_File_Index>
29

> <s_user_SMILES>
c1ccccc1Cc2cccc(n2)-c3nc(c34)nc(=O)c4

> <minimizedAffinity>
-8.99393

> <minimizedRMSD>
0.64028

> <CNNscore>
0.9679168463

> <CNNaffinity>
6.3659915924

> <CNN_VS>
6.1617503166

> <CNNaffinity_variance>
0.1832836419

$$$$
O1[N@@H]C12C=3C2=NC3c(nc4)cc(c45)nc(cc5)-c6ccccc6
                    3D
 Schrodinger Suite 2021-1.
 24 29  0  0  1  0            999 V2000
  -23.8938   22.6911   -9.6160 C   0  0  0  0  0  0
  -22.0635   21.3497  -11.1962 C   0  0  0  0  0  0
  -23.3583   20.8204  -11.0629 C   0  0  0  0  0  0
  -21.0698   20.6159  -11.8059 C   0  0  0  0  0  0
  -21.3410   19.3317  -12.2532 C   0  0  0  0  0  0
  -23.6183   19.5445  -11.5931 C   0  0  0  0  0  0
  -22.5718   23.1492   -9.7514 C   0  0  0  0  0  0
  -24.2968   21.5340  -10.3019 C   0  0  0  0  0  0
  -21.7154   22.4812  -10.5524 N   0  0  0  0  0  0
  -22.6017   18.8216  -12.1500 N   0  0  0  0  0  0
  -18.7361   17.6634  -13.4896 C   0  0  0  0  0  0
  -19.0058   16.3284  -13.3774 C   0  0  3  0  0  0
  -18.7457   18.8889  -13.4375 N   0  0  0  0  0  0
  -17.7102   15.9837  -13.1071 O   0  0  0  0  0  0
  -19.8698   17.3086  -12.9570 C   0  0  0  0  0  0
  -20.2241   18.5445  -12.7571 C   0  0  0  0  0  0
  -18.5880   15.7546  -12.0980 N   0  0  1  0  0  0
  -18.2527   16.4275  -11.3801 H   0  0  0  0  0  0
  -21.9757   24.1552   -8.8705 C   0  0  0  0  0  0
  -21.8217   23.8617   -7.5073 C   0  0  0  0  0  0
  -20.3892   25.9799   -8.6416 C   0  0  0  0  0  0
  -21.2543   25.2211   -9.4334 C   0  0  0  0  0  0
  -20.9624   24.6271   -6.7170 C   0  0  0  0  0  0
  -20.2299   25.6717   -7.2890 C   0  0  0  0  0  0
  1  7  2  0  0  0
  1  8  1  0  0  0
  2  3  1  0  0  0
  2  4  1  0  0  0
  2  9  2  0  0  0
  3  6  1  0  0  0
  3  8  2  0  0  0
  4  5  2  0  0  0
  5 16  1  0  0  0
  5 10  1  0  0  0
  6 10  2  0  0  0
  7 19  1  0  0  0
  7  9  1  0  0  0
 11 12  1  0  0  0
 11 13  2  0  0  0
 11 15  1  0  0  0
 12 14  1  0  0  0
 12 15  1  0  0  0
 12 17  1  0  0  0
 13 16  1  0  0  0
 14 17  1  0  0  0
 15 16  2  0  0  0
 17 18  1  0  0  0
 19 20  2  0  0  0
 19 22  1  0  0  0
 20 23  1  0  0  0
 21 22  2  0  0  0
 21 24  1  0  0  0
 23 24  2  0  0  0
M  END
> <s_m_entry_id>
774

> <s_m_entry_name>
10-myco-2_39_lig_gen_fit_add_gna.sdf.4

> <s_m_Source_Path>
C:\Users\maila\Downloads\mgr\myco-analysis

> <s_m_Source_File>
myco-10-var2-wzakresie.mae

> <i_m_Source_File_Index>
30

> <s_user_SMILES>
O1[N@@H]C12C=3C2=NC3c(nc4)cc(c45)nc(cc5)-c6ccccc6

> <minimizedAffinity>
-8.64209

> <minimizedRMSD>
0.27272

> <CNNscore>
0.7851461768

> <CNNaffinity>
6.177177906

> <CNN_VS>
4.8499875069

> <CNNaffinity_variance>
0.1875129491

$$$$
c1cnc(C)cc1CC(=C)C2=CC=C(C2)c3cc(N)[nH]n3
                    3D
 Schrodinger Suite 2021-1.
 24 26  0  0  1  0            999 V2000
  -23.4039   20.6409  -11.5251 C   0  0  0  0  0  0
  -22.8573   18.4805  -11.8973 C   0  0  0  0  0  0
  -23.8905   19.4020  -11.4796 C   0  0  0  0  0  0
  -22.0192   20.6286  -12.0868 C   0  0  0  0  0  0
  -21.7759   19.1640  -12.1888 C   0  0  0  0  0  0
  -18.7775   17.2897  -12.7817 C   0  0  0  0  0  0
  -20.4920   18.5746  -12.5315 C   0  0  0  0  0  0
  -20.1031   17.2531  -12.4052 C   0  0  0  0  0  0
  -19.4631   19.3198  -12.9428 N   0  0  0  0  0  0
  -17.8489   16.2344  -12.6474 N   0  0  0  0  0  0
  -18.4233   18.5307  -13.1151 N   0  0  0  0  0  0
  -18.0948   15.4559  -12.0132 H   0  0  0  0  0  0
  -16.8868   16.3212  -13.0397 H   0  0  0  0  0  0
  -17.4805   18.8497  -13.4207 H   0  0  0  0  0  0
  -25.3670   21.8593  -10.6828 C   0  0  0  0  0  0
  -24.0859   21.8697  -11.0565 C   0  0  0  0  0  0
  -23.2906   23.1438  -10.9003 C   0  0  0  0  0  0
  -22.5530   23.2416   -9.5794 C   0  0  0  0  0  0
  -21.6366   24.2883   -9.3951 C   0  0  0  0  0  0
  -20.0194   25.5563   -7.9354 C   0  0  0  0  0  0
  -22.7955   22.3617   -8.5066 C   0  0  0  0  0  0
  -21.2158   23.5443   -7.1641 N   0  0  0  0  0  0
  -20.9624   24.4203   -8.1727 C   0  0  0  0  0  0
  -22.1018   22.5255   -7.3070 C   0  0  0  0  0  0
  1  3  2  0  0  0
  1  4  1  0  0  0
  1 16  1  0  0  0
  2  3  1  0  0  0
  2  5  2  0  0  0
  4  5  1  0  0  0
  5  7  1  0  0  0
  6  8  2  0  0  0
  6 10  1  0  0  0
  6 11  1  0  0  0
  7  8  1  0  0  0
  7  9  2  0  0  0
  9 11  1  0  0  0
 10 12  1  0  0  0
 10 13  1  0  0  0
 11 14  1  0  0  0
 15 16  2  0  0  0
 16 17  1  0  0  0
 17 18  1  0  0  0
 18 19  2  0  0  0
 18 21  1  0  0  0
 19 23  1  0  0  0
 20 23  1  0  0  0
 21 24  2  0  0  0
 22 23  2  0  0  0
 22 24  1  0  0  0
M  END
> <s_m_entry_id>
775

> <s_m_entry_name>
10-myco-2_39_lig_gen_fit_add_gna.sdf.9

> <s_m_Source_Path>
C:\Users\maila\Downloads\mgr\myco-analysis

> <s_m_Source_File>
myco-10-var2-wzakresie.mae

> <i_m_Source_File_Index>
31

> <s_user_SMILES>
c1cnc(C)cc1CC(=C)C2=CC=C(C2)c3cc(N)[nH]n3

> <minimizedAffinity>
-9.10827

> <minimizedRMSD>
0.69655

> <CNNscore>
0.9647769332

> <CNNaffinity>
6.7627382278

> <CNN_VS>
6.5245337486

> <CNNaffinity_variance>
0.027743388

$$$$
C1C=CC=C1CCc2cc(c(C)cc2)C=3C[C@H](C34)C=C(C=N4)N
                    3D
 Schrodinger Suite 2021-1.
 25 28  0  0  1  0            999 V2000
  -25.2706   21.2502  -10.5574 C   0  0  0  0  0  0
  -23.2912   22.6254  -10.7446 C   0  0  0  0  0  0
  -23.2778   20.3441  -11.6272 C   0  0  0  0  0  0
  -24.6222   20.1922  -11.2073 C   0  0  0  0  0  0
  -22.6498   21.5858  -11.4365 C   0  0  0  0  0  0
  -25.3013   18.8725  -11.1805 C   0  0  0  0  0  0
  -24.6031   22.4370  -10.3008 C   0  0  0  0  0  0
  -18.7546   19.1752  -12.4018 C   0  0  0  0  0  0
  -21.0734   19.0804  -12.1634 C   0  0  0  0  0  0
  -19.8579   19.8213  -12.0686 N   0  0  0  0  0  0
  -19.9659   17.1961  -12.8115 C   0  0  0  0  0  0
  -22.5058   17.8453  -12.5978 C   0  0  0  0  0  0
  -17.6369   17.0782  -13.3968 N   0  0  0  0  0  0
  -21.1104   17.6500  -12.4581 C   0  0  2  0  0  0
  -22.4239   19.2106  -12.0635 C   0  0  0  0  0  0
  -18.7764   17.7313  -12.8594 C   0  0  0  0  0  0
  -16.7765   17.6191  -13.6226 H   0  0  0  0  0  0
  -17.6424   16.0546  -13.5453 H   0  0  0  0  0  0
  -22.5625   23.9122  -10.4424 C   0  0  0  0  0  0
  -21.2473   23.6834   -9.6854 C   0  0  0  0  0  0
  -21.4624   23.5264   -8.2076 C   0  0  0  0  0  0
  -21.4842   23.8811   -5.9305 C   0  0  0  0  0  0
  -22.0265   22.7021   -6.1849 C   0  0  0  0  0  0
  -22.0234   22.4796   -7.6176 C   0  0  0  0  0  0
  -21.0294   24.5310   -7.1940 C   0  0  0  0  0  0
  1  4  2  0  0  0
  1  7  1  0  0  0
  2  5  1  0  0  0
  2  7  2  0  0  0
  2 19  1  0  0  0
  3  4  1  0  0  0
  3  5  2  0  0  0
  3 15  1  0  0  0
  4  6  1  0  0  0
  8 10  2  0  0  0
  8 16  1  0  0  0
  9 10  1  0  0  0
  9 14  1  0  0  0
  9 15  2  0  0  0
 11 14  1  0  0  0
 11 16  2  0  0  0
 12 14  1  0  0  0
 12 15  1  0  0  0
 13 16  1  0  0  0
 13 17  1  0  0  0
 13 18  1  0  0  0
 19 20  1  0  0  0
 20 21  1  0  0  0
 21 24  2  0  0  0
 21 25  1  0  0  0
 22 23  2  0  0  0
 22 25  1  0  0  0
 23 24  1  0  0  0
M  END
> <s_m_entry_id>
776

> <s_m_entry_name>
10-myco-2_40_lig_gen_fit_add_gna.sdf.1

> <s_m_Source_Path>
C:\Users\maila\Downloads\mgr\myco-analysis

> <s_m_Source_File>
myco-10-var2-wzakresie.mae

> <i_m_Source_File_Index>
32

> <s_user_SMILES>
C1C=CC=C1CCc2cc(c(C)cc2)C=3C[C@H](C34)C=C(C=N4)N

> <minimizedAffinity>
-9.56524

> <minimizedRMSD>
0.24369

> <CNNscore>
0.6369630098

> <CNNaffinity>
6.6728873253

> <CNN_VS>
4.2503824234

> <CNNaffinity_variance>
0.1591428965

$$$$
C1C=CC=C1Cc2cccc(c3)c2cc(c34)N=C(O)[C@H]4C
                    3D
 Schrodinger Suite 2021-1.
 22 25  0  0  1  0            999 V2000
  -21.2575   20.8560  -12.0031 C   0  0  0  0  0  0
  -23.4683   21.6387  -11.0199 C   0  0  0  0  0  0
  -24.5986   19.0843  -11.3413 C   0  0  0  0  0  0
  -22.6887   20.5898  -11.5636 C   0  0  0  0  0  0
  -18.9842   18.0944  -12.6160 C   0  0  0  0  0  0
  -24.7784   21.3776  -10.5958 C   0  0  0  0  0  0
  -21.1840   18.3455  -12.4932 C   0  0  0  0  0  0
  -19.2335   19.4676  -12.3408 N   0  0  0  0  0  0
  -20.1119   17.3968  -12.7274 C   0  0  2  0  0  0
  -23.2778   19.3053  -11.7445 C   0  0  0  0  0  0
  -20.2011   15.9277  -12.6361 C   0  0  0  0  0  0
  -20.5174   19.5938  -12.2850 C   0  0  0  0  0  0
  -17.6966   17.5648  -12.6847 O   0  0  0  0  0  0
  -25.3303   20.1098  -10.7492 C   0  0  0  0  0  0
  -22.4804   18.1692  -12.2645 C   0  0  0  0  0  0
  -17.5307   16.5842  -12.8755 H   0  0  0  0  0  0
  -22.9080   23.0258  -10.8335 C   0  0  0  0  0  0
  -22.1697   23.1590   -9.5325 C   0  0  0  0  0  0
  -21.0395   23.8348   -9.3891 C   0  0  0  0  0  0
  -22.6527   22.6620   -8.2069 C   0  0  0  0  0  0
  -21.5666   23.1421   -7.3035 C   0  0  0  0  0  0
  -20.6545   23.8099   -7.9905 C   0  0  0  0  0  0
  1  4  2  0  0  0
  1 12  1  0  0  0
  2  4  1  0  0  0
  2  6  2  0  0  0
  2 17  1  0  0  0
  3 10  1  0  0  0
  3 14  2  0  0  0
  4 10  1  0  0  0
  5  8  2  0  0  0
  5  9  1  0  0  0
  5 13  1  0  0  0
  6 14  1  0  0  0
  7  9  1  0  0  0
  7 12  2  0  0  0
  7 15  1  0  0  0
  8 12  1  0  0  0
  9 11  1  0  0  0
 10 15  2  0  0  0
 13 16  1  0  0  0
 17 18  1  0  0  0
 18 19  2  0  0  0
 18 20  1  0  0  0
 19 22  1  0  0  0
 20 21  1  0  0  0
 21 22  2  0  0  0
M  END
> <s_m_entry_id>
777

> <s_m_entry_name>
10-myco-2_40_lig_gen_fit_add_gna.sdf.2

> <s_m_Source_Path>
C:\Users\maila\Downloads\mgr\myco-analysis

> <s_m_Source_File>
myco-10-var2-wzakresie.mae

> <i_m_Source_File_Index>
33

> <s_user_SMILES>
C1C=CC=C1Cc2cccc(c3)c2cc(c34)N=C(O)[C@H]4C

> <minimizedAffinity>
-11.01505

> <minimizedRMSD>
0.48791

> <CNNscore>
0.7716864347

> <CNNaffinity>
6.3458199501

> <CNN_VS>
4.8969831467

> <CNNaffinity_variance>
0.1446045339

$$$$
c1c(N)nnc(c1C)-c2cc(ccc2)Nc(c3C)cccc3
                    3D
 Schrodinger Suite 2021-1.
 25 27  0  0  1  0            999 V2000
  -23.0963   22.3580  -11.0416 C   0  0  0  0  0  0
  -24.3451   21.7881  -10.8020 C   0  0  0  0  0  0
  -22.2596   20.2012  -11.8891 C   0  0  0  0  0  0
  -22.0519   21.5658  -11.5527 C   0  0  0  0  0  0
  -23.5758   19.7071  -11.7493 C   0  0  0  0  0  0
  -24.5728   20.4570  -11.1269 C   0  0  0  0  0  0
  -19.9010   17.4041  -13.1740 C   0  0  0  0  0  0
  -21.0617   19.3388  -12.2606 C   0  0  0  0  0  0
  -18.7016   18.0466  -12.9827 C   0  0  0  0  0  0
  -22.2854   17.1427  -12.8122 C   0  0  0  0  0  0
  -17.4971   17.4306  -13.4203 N   0  0  0  0  0  0
  -19.8278   19.8536  -12.0123 N   0  0  0  0  0  0
  -18.6921   19.2483  -12.3633 N   0  0  0  0  0  0
  -21.0904   18.0084  -12.7635 C   0  0  0  0  0  0
  -16.5866   17.9295  -13.3523 H   0  0  0  0  0  0
  -16.5866   17.9295  -13.3522 H   0  0  0  0  0  0
  -22.9063   23.7522  -10.7797 N   0  0  0  0  0  0
  -23.3836   24.4297  -11.4163 H   0  0  0  0  0  0
  -20.1477   25.3430   -7.9730 C   0  0  0  0  0  0
  -21.9701   24.2551   -9.8137 C   0  0  0  0  0  0
  -20.3351   25.9513   -9.2134 C   0  0  0  0  0  0
  -21.2432   25.4126  -10.1270 C   0  0  0  0  0  0
  -22.6954   22.5330   -8.0750 C   0  0  0  0  0  0
  -21.8266   23.6727   -8.5284 C   0  0  0  0  0  0
  -20.8927   24.2142   -7.6288 C   0  0  0  0  0  0
  1  2  2  0  0  0
  1  4  1  0  0  0
  1 17  1  0  0  0
  2  6  1  0  0  0
  3  8  1  0  0  0
  3  4  2  0  0  0
  3  5  1  0  0  0
  5  6  2  0  0  0
  7  9  2  0  0  0
  7 14  1  0  0  0
  8 12  1  0  0  0
  8 14  2  0  0  0
  9 11  1  0  0  0
  9 13  1  0  0  0
 10 14  1  0  0  0
 11 15  1  0  0  0
 11 16  1  0  0  0
 12 13  2  0  0  0
 17 20  1  0  0  0
 17 18  1  0  0  0
 19 21  2  0  0  0
 19 25  1  0  0  0
 20 22  2  0  0  0
 20 24  1  0  0  0
 21 22  1  0  0  0
 23 24  1  0  0  0
 24 25  2  0  0  0
M  END
> <s_m_entry_id>
778

> <s_m_entry_name>
10-myco-2_40_lig_gen_fit_add_gna.sdf.4

> <s_m_Source_Path>
C:\Users\maila\Downloads\mgr\myco-analysis

> <s_m_Source_File>
myco-10-var2-wzakresie.mae

> <i_m_Source_File_Index>
34

> <s_user_SMILES>
c1c(N)nnc(c1C)-c2cc(ccc2)Nc(c3C)cccc3

> <minimizedAffinity>
-9.50945

> <minimizedRMSD>
0.53657

> <CNNscore>
0.981328845

> <CNNaffinity>
6.617497921

> <CNN_VS>
6.4939417839

> <CNNaffinity_variance>
0.1866545379

$$$$
C1C=C(C)C=C1CC2C(=[C]23C)C=C(C=C3)C(=C4CN)N=NC4=O
                    3D
 Schrodinger Suite 2021-1.
 25 28  0  0  1  0            999 V2000
  -23.6657   19.5921  -11.5246 C   0  0  0  0  0  0
  -22.0594   21.4485  -10.7877 C   0  0  0  0  0  0
  -22.6812   19.0215  -12.2125 C   0  0  0  0  0  0
  -23.4491   20.8207  -10.7014 C   0  0  0  0  0  0
  -23.2069   22.1302  -11.4851 C   0  0  0  0  0  0
  -21.3011   19.5456  -12.1876 C   0  0  0  0  0  0
  -21.0760   20.7775  -11.7019 C   0  0  0  0  0  0
  -24.0744   20.8114   -9.2971 C   0  0  0  0  0  0
  -18.1497   16.0299  -13.2777 O   0  0  0  0  0  0
  -18.6891   17.1039  -12.9377 C   0  0  0  0  0  0
  -17.9654   18.2776  -12.7156 N   0  0  0  0  0  0
  -20.1086   17.3770  -12.7752 C   0  0  0  0  0  0
  -18.8007   19.1965  -12.4824 N   0  0  0  0  0  0
  -20.1373   18.6966  -12.5467 C   0  0  0  0  0  0
  -21.2141   16.3794  -12.5833 C   0  0  0  0  0  0
  -20.6885   15.1274  -12.0662 N   0  0  0  0  0  0
  -21.4440   14.6204  -11.5638 H   0  0  0  0  0  0
  -20.4294   14.5218  -12.8717 H   0  0  0  0  0  0
  -23.6465   23.4463  -10.8497 C   0  0  0  0  0  0
  -22.5670   24.1950  -10.1080 C   0  0  0  0  0  0
  -22.2068   23.9464   -8.8546 C   0  0  0  0  0  0
  -20.9185   25.6934   -9.4908 C   0  0  0  0  0  0
  -21.8184   25.3752  -10.6404 C   0  0  0  0  0  0
  -21.1640   24.8779   -8.4779 C   0  0  0  0  0  0
  -20.3721   24.8138   -7.2129 C   0  0  0  0  0  0
  1  3  2  0  0  0
  1  4  1  0  0  0
  2  4  2  0  0  0
  2  5  1  0  0  0
  2  7  1  0  0  0
  3  6  1  0  0  0
  4  5  1  0  0  0
  4  8  1  0  0  0
  5 19  1  0  0  0
  6  7  2  0  0  0
  6 14  1  0  0  0
  9 10  2  0  0  0
 10 11  1  0  0  0
 10 12  1  0  0  0
 11 13  2  0  0  0
 12 15  1  0  0  0
 12 14  2  0  0  0
 13 14  1  0  0  0
 15 16  1  0  0  0
 16 17  1  0  0  0
 16 18  1  0  0  0
 19 20  1  0  0  0
 20 21  2  0  0  0
 20 23  1  0  0  0
 21 24  1  0  0  0
 22 23  1  0  0  0
 22 24  2  0  0  0
 24 25  1  0  0  0
M  END
> <s_m_entry_id>
779

> <s_m_entry_name>
10-myco-2_40_lig_gen_fit_add_gna.sdf.5

> <s_m_Source_Path>
C:\Users\maila\Downloads\mgr\myco-analysis

> <s_m_Source_File>
myco-10-var2-wzakresie.mae

> <i_m_Source_File_Index>
35

> <s_user_SMILES>
C1C=C(C)C=C1CC2C(=[C]23C)C=C(C=C3)C(=C4CN)N=NC4=O

> <minimizedAffinity>
-8.30243

> <minimizedRMSD>
0.38827

> <CNNscore>
0.6343078613

> <CNNaffinity>
6.828414917

> <CNN_VS>
4.3313174248

> <CNNaffinity_variance>
0.1323532164

$$$$
C1=CCC=C1Cn2cnc(c23)ccc(c3)[C@@](C45N)([C@@H]4C)NC5
                    3D
 Schrodinger Suite 2021-1.
 25 29  0  0  1  0            999 V2000
  -21.9252   19.2840  -12.0878 C   0  0  0  0  0  0
  -22.0213   20.6917  -11.8417 C   0  0  0  0  0  0
  -23.2181   21.2084  -11.3215 C   0  0  0  0  0  0
  -24.3089   19.0865  -11.4281 C   0  0  0  0  0  0
  -25.3349   21.1370  -10.6192 N   0  0  0  0  0  0
  -23.1035   18.5117  -11.8525 C   0  0  0  0  0  0
  -24.7911   22.3657  -10.4539 C   0  0  0  0  0  0
  -24.3231   20.4353  -11.1577 C   0  0  0  0  0  0
  -23.4987   22.4411  -10.8604 N   0  0  0  0  0  0
  -19.6380   17.6708  -11.9892 C   0  0  3  0  0  0
  -19.0637   16.3401  -11.9387 N   0  0  0  0  0  0
  -21.3789   16.3456  -13.2297 C   0  0  0  0  0  0
  -20.3641   17.4417  -13.3324 C   0  0  1  0  0  0
  -18.5498   18.6800  -12.2583 C   0  0  0  0  0  0
  -20.5880   18.7199  -12.6491 C   0  0  1  0  0  0
  -19.4995   19.6725  -12.7133 N   0  0  2  0  0  0
  -18.9355   16.1249  -10.9460 H   0  0  0  0  0  0
  -18.1355   16.2885  -12.4199 H   0  0  0  0  0  0
  -19.3216   19.7945  -13.7051 H   0  0  0  0  0  0
  -22.5788   23.5426  -10.5830 C   0  0  0  0  0  0
  -21.6441   22.8961   -7.0468 C   0  0  0  0  0  0
  -22.5078   22.7841   -8.0415 C   0  0  0  0  0  0
  -21.9348   23.4015   -9.2306 C   0  0  0  0  0  0
  -20.4130   23.6093   -7.4981 C   0  0  0  0  0  0
  -20.7394   23.8856   -8.9280 C   0  0  0  0  0  0
  1  2  2  0  0  0
  1  6  1  0  0  0
  1 15  1  0  0  0
  2  3  1  0  0  0
  3  8  2  0  0  0
  3  9  1  0  0  0
  4  6  2  0  0  0
  4  8  1  0  0  0
  5  7  2  0  0  0
  5  8  1  0  0  0
  7  9  1  0  0  0
  9 20  1  0  0  0
 10 11  1  0  0  0
 10 13  1  0  0  0
 10 14  1  0  0  0
 10 15  1  0  0  0
 11 17  1  0  0  0
 11 18  1  0  0  0
 12 13  1  0  0  0
 13 15  1  0  0  0
 14 16  1  0  0  0
 15 16  1  0  0  0
 16 19  1  0  0  0
 20 23  1  0  0  0
 21 22  2  0  0  0
 21 24  1  0  0  0
 22 23  1  0  0  0
 23 25  2  0  0  0
 24 25  1  0  0  0
M  END
> <s_m_entry_id>
780

> <s_m_entry_name>
10-myco-2_40_lig_gen_fit_add_gna.sdf.7

> <s_m_Source_Path>
C:\Users\maila\Downloads\mgr\myco-analysis

> <s_m_Source_File>
myco-10-var2-wzakresie.mae

> <i_m_Source_File_Index>
36

> <s_user_SMILES>
C1=CCC=C1Cn2cnc(c23)ccc(c3)[C@@](C45N)([C@@H]4C)NC5

> <minimizedAffinity>
-9.35968

> <minimizedRMSD>
0.26691

> <CNNscore>
0.4219154716

> <CNNaffinity>
6.3078026772

> <CNN_VS>
2.6613595486

> <CNNaffinity_variance>
0.1271425039

$$$$
COC(\C)=C/n(ccc1)c2c1cc3c2C34C(N)=C(N)N=C4
                    3D
 Schrodinger Suite 2021-1.
 25 28  0  0  1  0            999 V2000
  -24.1052   19.8229  -11.2298 C   0  0  0  0  0  0
  -25.3212   19.9014  -10.5799 C   0  0  0  0  0  0
  -22.2710   19.2284  -12.0066 C   0  0  0  0  0  0
  -24.9556   22.3179  -10.3175 C   0  0  0  0  0  0
  -23.3333   18.6228  -11.4755 C   0  0  0  0  0  0
  -20.4834   18.6267  -13.0594 C   0  0  0  0  0  0
  -19.2017   18.6664  -12.7398 C   0  0  0  0  0  0
  -25.7642   21.1682  -10.1778 C   0  0  0  0  0  0
  -21.1536   19.8997  -12.5653 C   0  0  3  0  0  0
  -22.2935   20.6145  -12.0744 C   0  0  0  0  0  0
  -23.7561   22.2945  -10.9810 N   0  0  0  0  0  0
  -18.9077   19.7952  -11.9610 N   0  0  0  0  0  0
  -21.1233   17.4587  -13.5897 N   0  0  0  0  0  0
  -20.0140   20.4298  -11.7600 C   0  0  0  0  0  0
  -23.4319   21.1430  -11.6118 C   0  0  0  0  0  0
  -18.2282   17.6655  -13.0357 N   0  0  0  0  0  0
  -20.6614   16.5249  -13.5254 H   0  0  0  0  0  0
  -22.1235   17.5002  -13.8840 H   0  0  0  0  0  0
  -17.2607   17.7562  -12.6551 H   0  0  0  0  0  0
  -18.4304   16.8862  -13.6940 H   0  0  0  0  0  0
  -22.8992   23.4386  -10.9689 C   0  0  0  0  0  0
  -21.2325   24.9186   -9.9122 C   0  0  0  0  0  0
  -22.0642   23.6634   -9.9470 C   0  0  0  0  0  0
  -22.0248   23.0677   -7.5251 C   0  0  0  0  0  0
  -21.9998   22.7245   -8.9063 O   0  0  0  0  0  0
  1  2  2  0  0  0
  1  5  1  0  0  0
  1 15  1  0  0  0
  2  8  1  0  0  0
  3  5  2  0  0  0
  3  9  1  0  0  0
  3 10  1  0  0  0
  4  8  2  0  0  0
  4 11  1  0  0  0
  6  7  2  0  0  0
  6  9  1  0  0  0
  6 13  1  0  0  0
  7 12  1  0  0  0
  7 16  1  0  0  0
  9 10  1  0  0  0
  9 14  1  0  0  0
 10 15  2  0  0  0
 11 21  1  0  0  0
 11 15  1  0  0  0
 12 14  2  0  0  0
 13 17  1  0  0  0
 13 18  1  0  0  0
 16 19  1  0  0  0
 16 20  1  0  0  0
 21 23  2  0  0  0
 22 23  1  0  0  0
 23 25  1  0  0  0
 24 25  1  0  0  0
M  END
> <s_m_entry_id>
781

> <s_m_entry_name>
10-myco-2_40_lig_gen_fit_add_gna.sdf.10

> <s_m_Source_Path>
C:\Users\maila\Downloads\mgr\myco-analysis

> <s_m_Source_File>
myco-10-var2-wzakresie.mae

> <i_m_Source_File_Index>
37

> <s_user_SMILES>
COC(\C)=C/n(ccc1)c2c1cc3c2C34C(N)=C(N)N=C4

> <minimizedAffinity>
-8.57368

> <minimizedRMSD>
0.30008

> <CNNscore>
0.8223819137

> <CNNaffinity>
6.2362031937

> <CNN_VS>
5.1285405159

> <CNNaffinity_variance>
0.0596930496

$$$$
n1ccccc1CCC2=CC=C(C2=3)C=C(C3)C4=NN=C(N)[C@H]4C
                    3D
 Schrodinger Suite 2021-1.
 25 28  0  0  1  0            999 V2000
  -23.2497   20.6887  -11.5849 C   0  0  0  0  0  0
  -21.9313   19.0154  -12.1613 C   0  0  0  0  0  0
  -25.0269   19.7709  -10.4477 C   0  0  0  0  0  0
  -24.8590   21.0507  -10.0741 C   0  0  0  0  0  0
  -23.2453   18.4568  -11.7428 C   0  0  0  0  0  0
  -21.9488   20.3491  -12.0723 C   0  0  0  0  0  0
  -23.6803   21.6235  -10.7646 C   0  0  0  0  0  0
  -23.9920   19.5066  -11.4327 C   0  0  0  0  0  0
  -20.6583   18.2945  -12.2424 C   0  0  0  0  0  0
  -19.5701   18.8562  -11.8343 N   0  0  0  0  0  0
  -20.3634   17.0872  -13.0700 C   0  0  1  0  0  0
  -18.8678   17.2144  -13.0646 C   0  0  0  0  0  0
  -20.7972   15.7877  -12.4311 C   0  0  0  0  0  0
  -18.0112   16.6277  -14.0184 N   0  0  0  0  0  0
  -18.4616   18.1856  -12.3309 N   0  0  0  0  0  0
  -18.3441   16.6877  -14.9986 H   0  0  0  0  0  0
  -16.9831   16.5872  -13.8452 H   0  0  0  0  0  0
  -22.8887   22.8358  -10.3671 C   0  0  0  0  0  0
  -22.4835   22.7799   -8.8898 C   0  0  0  0  0  0
  -19.6091   25.8411   -8.0620 C   0  0  0  0  0  0
  -19.2591   24.4895   -8.0574 C   0  0  0  0  0  0
  -21.4984   23.8664   -8.5671 C   0  0  0  0  0  0
  -21.8829   25.2146   -8.5873 C   0  0  0  0  0  0
  -20.9305   26.2026   -8.3294 C   0  0  0  0  0  0
  -20.2002   23.5422   -8.3119 N   0  0  0  0  0  0
  1  6  2  0  0  0
  1  7  1  0  0  0
  1  8  1  0  0  0
  2  9  1  0  0  0
  2  5  2  0  0  0
  2  6  1  0  0  0
  3  4  1  0  0  0
  3  8  2  0  0  0
  4  7  2  0  0  0
  5  8  1  0  0  0
  7 18  1  0  0  0
  9 10  2  0  0  0
  9 11  1  0  0  0
 10 15  1  0  0  0
 11 12  1  0  0  0
 11 13  1  0  0  0
 12 14  1  0  0  0
 12 15  2  0  0  0
 14 16  1  0  0  0
 14 17  1  0  0  0
 18 19  1  0  0  0
 19 22  1  0  0  0
 20 21  2  0  0  0
 20 24  1  0  0  0
 21 25  1  0  0  0
 22 23  1  0  0  0
 22 25  2  0  0  0
 23 24  2  0  0  0
M  END
> <s_m_entry_id>
782

> <s_m_entry_name>
10-myco-2_41_lig_gen_fit_add_gna.sdf.3

> <s_m_Source_Path>
C:\Users\maila\Downloads\mgr\myco-analysis

> <s_m_Source_File>
myco-10-var2-wzakresie.mae

> <i_m_Source_File_Index>
38

> <s_user_SMILES>
n1ccccc1CCC2=CC=C(C2=3)C=C(C3)C4=NN=C(N)[C@H]4C

> <minimizedAffinity>
-8.21258

> <minimizedRMSD>
0.34351

> <CNNscore>
0.7799744606

> <CNNaffinity>
6.9217085838

> <CNN_VS>
5.3987560272

> <CNNaffinity_variance>
0.1253179908

$$$$
c1cnnc(c1CN)-c(c2)ccc(c23)=CCC=3C4=CC=CC4
                    3D
 Schrodinger Suite 2021-1.
 24 27  0  0  1  0            999 V2000
  -24.4631   20.1284  -10.9441 C   0  0  0  0  0  0
  -23.3982   20.9643  -11.1911 C   0  0  0  0  0  0
  -23.6078   22.1383  -10.5796 C   0  0  0  0  0  0
  -22.1519   19.0786  -12.1218 C   0  0  0  0  0  0
  -24.4473   18.7951  -11.3247 C   0  0  0  0  0  0
  -25.4076   20.7282  -10.2444 C   0  0  0  0  0  0
  -22.2456   20.4724  -11.8376 C   0  0  0  0  0  0
  -24.9606   22.1105   -9.9235 C   0  0  0  0  0  0
  -23.3111   18.2888  -11.9670 C   0  0  0  0  0  0
  -20.5449   17.1232  -12.7774 C   0  0  0  0  0  0
  -19.7824   19.3159  -12.5618 N   0  0  0  0  0  0
  -18.2665   17.6813  -13.2558 C   0  0  0  0  0  0
  -19.2504   16.7453  -13.1533 C   0  0  0  0  0  0
  -18.5513   18.9447  -12.9019 N   0  0  0  0  0  0
  -20.8314   18.4843  -12.5282 C   0  0  0  0  0  0
  -21.4525   16.0237  -12.4429 C   0  0  0  0  0  0
  -20.8355   14.7553  -12.7623 N   0  0  0  0  0  0
  -21.4771   13.9884  -12.4676 H   0  0  0  0  0  0
  -20.8146   14.7359  -13.7904 H   0  0  0  0  0  0
  -22.6213   23.2076  -10.3123 C   0  0  0  0  0  0
  -21.0150   24.4028   -9.2536 C   0  0  0  0  0  0
  -21.5494   25.2467  -10.1175 C   0  0  0  0  0  0
  -21.6932   23.1274   -9.3663 C   0  0  0  0  0  0
  -22.6322   24.5799  -10.8977 C   0  0  0  0  0  0
  1  2  1  0  0  0
  1  5  1  0  0  0
  1  6  2  0  0  0
  2  3  2  0  0  0
  2  7  1  0  0  0
  3 20  1  0  0  0
  3  8  1  0  0  0
  4  7  2  0  0  0
  4 15  1  0  0  0
  4  9  1  0  0  0
  5  9  2  0  0  0
  6  8  1  0  0  0
 10 16  1  0  0  0
 10 13  2  0  0  0
 10 15  1  0  0  0
 11 14  1  0  0  0
 11 15  2  0  0  0
 12 13  1  0  0  0
 12 14  2  0  0  0
 16 17  1  0  0  0
 17 18  1  0  0  0
 17 19  1  0  0  0
 20 23  2  0  0  0
 20 24  1  0  0  0
 21 22  2  0  0  0
 21 23  1  0  0  0
 22 24  1  0  0  0
M  END
> <s_m_entry_id>
783

> <s_m_entry_name>
10-myco-2_41_lig_gen_fit_add_gna.sdf.5

> <s_m_Source_Path>
C:\Users\maila\Downloads\mgr\myco-analysis

> <s_m_Source_File>
myco-10-var2-wzakresie.mae

> <i_m_Source_File_Index>
39

> <s_user_SMILES>
c1cnnc(c1CN)-c(c2)ccc(c23)=CCC=3C4=CC=CC4

> <minimizedAffinity>
-9.52645

> <minimizedRMSD>
0.72532

> <CNNscore>
0.7937121987

> <CNNaffinity>
6.5304174423

> <CNN_VS>
5.1832718849

> <CNNaffinity_variance>
0.2076559365

$$$$
c1cnccc1NCC(N=C2)=C(C2=C34)[C@H]4c5c3c(C)ccn5
                    3D
 Schrodinger Suite 2021-1.
 23 27  0  0  1  0            999 V2000
  -19.1992   19.1376  -12.0543 N   0  0  0  0  0  0
  -24.4124   18.4480  -11.2252 C   0  0  0  0  0  0
  -20.5044   19.0209  -12.3457 C   0  0  0  0  0  0
  -19.1416   16.6910  -12.0507 C   0  0  0  0  0  0
  -22.4257   18.4849  -13.0408 C   0  0  0  0  0  0
  -22.7392   19.9205  -11.6352 C   0  0  0  0  0  0
  -21.2021   15.3183  -12.5281 C   0  0  0  0  0  0
  -18.4999   17.9579  -11.9452 C   0  0  0  0  0  0
  -23.6094   20.5613  -10.8885 C   0  0  0  0  0  0
  -21.7645   19.7085  -12.6777 C   0  0  1  0  0  0
  -24.6842   19.6035  -10.6534 N   0  0  0  0  0  0
  -21.1819   17.8152  -12.4790 C   0  0  0  0  0  0
  -23.1137   18.5561  -11.8388 C   0  0  0  0  0  0
  -20.5230   16.6094  -12.3303 C   0  0  0  0  0  0
  -23.8699   22.0346  -10.9567 C   0  0  0  0  0  0
  -22.6303   22.7997  -10.8205 N   0  0  0  0  0  0
  -22.0992   23.0068  -11.6965 H   0  0  0  0  0  0
  -22.1351   23.3242   -9.5774 C   0  0  0  0  0  0
  -20.8354   24.9844   -8.3908 C   0  0  0  0  0  0
  -22.0678   23.3730   -7.1610 C   0  0  0  0  0  0
  -21.2445   24.4534   -7.2093 N   0  0  0  0  0  0
  -21.2756   24.4323   -9.5946 C   0  0  0  0  0  0
  -22.5115   22.7758   -8.3397 C   0  0  0  0  0  0
  1  3  2  0  0  0
  1  8  1  0  0  0
  2 11  2  0  0  0
  2 13  1  0  0  0
  3 10  1  0  0  0
  3 12  1  0  0  0
  4  8  2  0  0  0
  4 14  1  0  0  0
  5 10  1  0  0  0
  5 12  1  0  0  0
  5 13  2  0  0  0
  6  9  2  0  0  0
  6 10  1  0  0  0
  6 13  1  0  0  0
  7 14  1  0  0  0
  9 15  1  0  0  0
  9 11  1  0  0  0
 12 14  2  0  0  0
 15 16  1  0  0  0
 16 18  1  0  0  0
 16 17  1  0  0  0
 18 22  2  0  0  0
 18 23  1  0  0  0
 19 21  2  0  0  0
 19 22  1  0  0  0
 20 21  1  0  0  0
 20 23  2  0  0  0
M  END
> <s_m_entry_id>
784

> <s_m_entry_name>
10-myco-2_42_lig_gen_fit_add_gna.sdf.2

> <s_m_Source_Path>
C:\Users\maila\Downloads\mgr\myco-analysis

> <s_m_Source_File>
myco-10-var2-wzakresie.mae

> <i_m_Source_File_Index>
40

> <s_user_SMILES>
c1cnccc1NCC(N=C2)=C(C2=C34)[C@H]4c5c3c(C)ccn5

> <minimizedAffinity>
-9.82007

> <minimizedRMSD>
0.67625

> <CNNscore>
0.8589920402

> <CNNaffinity>
6.816678524

> <CNN_VS>
5.8554725647

> <CNNaffinity_variance>
0.4317362309

$$$$
NCC1=C(N=C)C(=C12)C=C3C2C=C(C(C)=C3)NCc4ccncc4
                    3D
 Schrodinger Suite 2021-1.
 27 30  0  0  1  0            999 V2000
  -22.2756   20.9590  -11.5299 C   0  0  0  0  0  0
  -21.4028   18.9101  -12.6406 C   0  0  0  0  0  0
  -20.7236   16.9474  -12.4970 C   0  0  0  0  0  0
  -24.4588   19.2181  -11.0407 C   0  0  0  0  0  0
  -23.3348   18.7957  -11.7135 C   0  0  0  0  0  0
  -20.1077   18.1582  -12.3700 C   0  0  0  0  0  0
  -23.4862   21.4719  -10.9983 C   0  0  0  0  0  0
  -23.1153   17.5884  -12.1991 C   0  0  0  0  0  0
  -24.5527   20.5733  -10.7056 C   0  0  0  0  0  0
  -22.2714   19.6314  -11.9557 C   0  0  3  0  0  0
  -21.8732   17.6381  -13.0182 C   0  0  0  0  0  0
  -25.8247   21.0597  -10.1105 C   0  0  0  0  0  0
  -17.9125   17.2963  -11.8934 N   0  0  0  0  0  0
  -18.6810   18.5049  -12.1831 C   0  0  0  0  0  0
  -17.1127   17.5327  -11.2651 H   0  0  0  0  0  0
  -17.5173   16.9209  -12.7866 H   0  0  0  0  0  0
  -21.2434   14.7142  -12.7476 C   0  0  0  0  0  0
  -20.3493   15.5778  -12.4099 N   0  0  0  0  0  0
  -23.7347   22.8902  -10.9132 N   0  0  0  0  0  0
  -24.7267   23.2082  -10.9011 H   0  0  0  0  0  0
  -22.7364   23.9543  -10.8978 C   0  0  0  0  0  0
  -22.1038   24.1317   -9.5529 C   0  0  0  0  0  0
  -22.4619   23.3290   -8.4583 C   0  0  0  0  0  0
  -21.2202   25.1992   -9.3607 C   0  0  0  0  0  0
  -21.0073   24.6007   -7.0723 N   0  0  0  0  0  0
  -21.8847   23.5751   -7.2173 C   0  0  0  0  0  0
  -20.6687   25.4140   -8.1021 C   0  0  0  0  0  0
  1  7  2  0  0  0
  1 10  1  0  0  0
  2  6  1  0  0  0
  2 10  1  0  0  0
  2 11  2  0  0  0
  3  6  2  0  0  0
  3 11  1  0  0  0
  3 18  1  0  0  0
  4  5  1  0  0  0
  4  9  2  0  0  0
  5  8  2  0  0  0
  5 10  1  0  0  0
  6 14  1  0  0  0
  7  9  1  0  0  0
  7 19  1  0  0  0
  8 11  1  0  0  0
  9 12  1  0  0  0
 13 14  1  0  0  0
 13 15  1  0  0  0
 13 16  1  0  0  0
 17 18  2  0  0  0
 19 21  1  0  0  0
 19 20  1  0  0  0
 21 22  1  0  0  0
 22 23  2  0  0  0
 22 24  1  0  0  0
 23 26  1  0  0  0
 24 27  2  0  0  0
 25 26  2  0  0  0
 25 27  1  0  0  0
M  END
> <s_m_entry_id>
785

> <s_m_entry_name>
10-myco-2_42_lig_gen_fit_add_gna.sdf.3

> <s_m_Source_Path>
C:\Users\maila\Downloads\mgr\myco-analysis

> <s_m_Source_File>
myco-10-var2-wzakresie.mae

> <i_m_Source_File_Index>
41

> <s_user_SMILES>
NCC1=C(N=C)C(=C12)C=C3C2C=C(C(C)=C3)NCc4ccncc4

> <minimizedAffinity>
-9.94936

> <minimizedRMSD>
0.46119

> <CNNscore>
0.8208636642

> <CNNaffinity>
7.2041931152

> <CNN_VS>
5.9136605263

> <CNNaffinity_variance>
0.1292376816

$$$$
N#CC1=C(N)N=C1[C@@H](C=C2)C=C2CCc3ccncc3
                    3D
 Schrodinger Suite 2021-1.
 22 24  0  0  1  0            999 V2000
  -22.2406   20.3643  -12.1480 C   0  0  0  0  0  0
  -23.3361   20.3747  -11.3910 C   0  0  0  0  0  0
  -23.8617   19.0273  -11.3074 C   0  0  0  0  0  0
  -22.0014   18.9847  -12.6716 C   0  0  2  0  0  0
  -23.0735   18.2175  -11.9841 C   0  0  0  0  0  0
  -20.1100   17.0882  -12.3044 C   0  0  0  0  0  0
  -18.9146   17.5994  -12.1194 C   0  0  0  0  0  0
  -20.6543   18.4298  -12.3566 C   0  0  0  0  0  0
  -19.4692   18.9157  -12.1669 N   0  0  0  0  0  0
  -17.6171   17.0513  -11.9391 N   0  0  0  0  0  0
  -16.8762   17.6055  -11.4613 H   0  0  0  0  0  0
  -17.4342   16.0635  -12.2166 H   0  0  0  0  0  0
  -21.0943   14.6982  -12.4157 N   0  0  0  0  0  0
  -20.6518   15.7646  -12.3710 C   0  0  0  0  0  0
  -23.7857   21.4688  -10.4666 C   0  0  0  0  0  0
  -23.1078   22.8209  -10.7118 C   0  0  0  0  0  0
  -22.3801   23.3578   -9.5007 C   0  0  0  0  0  0
  -21.5364   24.4729   -9.6182 C   0  0  0  0  0  0
  -21.9851   23.3784   -7.1126 C   0  0  0  0  0  0
  -22.6102   22.8153   -8.2265 C   0  0  0  0  0  0
  -21.1635   24.4503   -7.2594 N   0  0  0  0  0  0
  -20.9293   25.0039   -8.4777 C   0  0  0  0  0  0
  1  2  2  0  0  0
  1  4  1  0  0  0
  2  3  1  0  0  0
  2 15  1  0  0  0
  3  5  2  0  0  0
  4  8  1  0  0  0
  4  5  1  0  0  0
  6  7  2  0  0  0
  6  8  1  0  0  0
  6 14  1  0  0  0
  7  9  1  0  0  0
  7 10  1  0  0  0
  8  9  2  0  0  0
 10 11  1  0  0  0
 10 12  1  0  0  0
 13 14  3  0  0  0
 15 16  1  0  0  0
 16 17  1  0  0  0
 17 18  2  0  0  0
 17 20  1  0  0  0
 18 22  1  0  0  0
 19 20  2  0  0  0
 19 21  1  0  0  0
 21 22  2  0  0  0
M  END
> <s_m_entry_id>
786

> <s_m_entry_name>
10-myco-2_42_lig_gen_fit_add_gna.sdf.6

> <s_m_Source_Path>
C:\Users\maila\Downloads\mgr\myco-analysis

> <s_m_Source_File>
myco-10-var2-wzakresie.mae

> <i_m_Source_File_Index>
42

> <s_user_SMILES>
N#CC1=C(N)N=C1[C@@H](C=C2)C=C2CCc3ccncc3

> <minimizedAffinity>
-9.21136

> <minimizedRMSD>
1.01535

> <CNNscore>
0.9414696097

> <CNNaffinity>
6.7672944069

> <CNN_VS>
6.371201992

> <CNNaffinity_variance>
0.0508491807

$$$$
c1ccc(N)cc1CC=2C=CC(C23)=CC=C4[C@@H]3C=CC(C)=C4C
                    3D
 Schrodinger Suite 2021-1.
 25 28  0  0  1  0            999 V2000
  -23.6347   21.8143  -10.5373 C   0  0  0  0  0  0
  -25.4542   20.5002  -10.0316 C   0  0  0  0  0  0
  -24.3691   18.5707  -11.1553 C   0  0  0  0  0  0
  -23.2509   20.5939  -10.9134 C   0  0  0  0  0  0
  -22.2175   18.6463  -12.3091 C   0  0  0  0  0  0
  -22.1413   20.1619  -11.9469 C   0  0  2  0  0  0
  -19.7056   19.7473  -11.7180 C   0  0  0  0  0  0
  -24.3672   19.7021  -10.5463 C   0  0  0  0  0  0
  -20.7554   20.5469  -11.5241 C   0  0  0  0  0  0
  -20.9962   17.8301  -12.5067 C   0  0  0  0  0  0
  -23.3417   18.1059  -11.9453 C   0  0  0  0  0  0
  -24.9968   21.7443   -9.9686 C   0  0  0  0  0  0
  -18.5121   17.5903  -12.3944 C   0  0  0  0  0  0
  -21.1278   16.3849  -12.8879 C   0  0  0  0  0  0
  -19.7958   18.3685  -12.2285 C   0  0  0  0  0  0
  -22.8346   23.0763  -10.6333 C   0  0  0  0  0  0
  -20.2435   24.6503   -8.3148 C   0  0  0  0  0  0
  -21.0026   24.3320   -9.4520 C   0  0  0  0  0  0
  -20.4766   23.9746   -7.1114 C   0  0  0  0  0  0
  -22.2407   22.6970   -8.1608 C   0  0  0  0  0  0
  -21.4730   23.0030   -7.0362 C   0  0  0  0  0  0
  -22.0010   23.3451   -9.3935 C   0  0  0  0  0  0
  -19.2494   25.6744   -8.3759 N   0  0  0  0  0  0
  -18.6619   25.9025   -7.5432 H   0  0  0  0  0  0
  -19.1138   26.2296   -9.2475 H   0  0  0  0  0  0
  1  4  2  0  0  0
  1 16  1  0  0  0
  1 12  1  0  0  0
  2  8  1  0  0  0
  2 12  2  0  0  0
  3  8  2  0  0  0
  3 11  1  0  0  0
  4  6  1  0  0  0
  4  8  1  0  0  0
  5  6  1  0  0  0
  5 10  1  0  0  0
  5 11  2  0  0  0
  6  9  1  0  0  0
  7  9  2  0  0  0
  7 15  1  0  0  0
 10 14  1  0  0  0
 10 15  2  0  0  0
 13 15  1  0  0  0
 16 22  1  0  0  0
 17 18  2  0  0  0
 17 19  1  0  0  0
 17 23  1  0  0  0
 18 22  1  0  0  0
 19 21  2  0  0  0
 20 21  1  0  0  0
 20 22  2  0  0  0
 23 24  1  0  0  0
 23 25  1  0  0  0
M  END
> <s_m_entry_id>
787

> <s_m_entry_name>
10-myco-2_43_lig_gen_fit_add_gna.sdf.2

> <s_m_Source_Path>
C:\Users\maila\Downloads\mgr\myco-analysis

> <s_m_Source_File>
myco-10-var2-wzakresie.mae

> <i_m_Source_File_Index>
43

> <s_user_SMILES>
c1ccc(N)cc1CC=2C=CC(C23)=CC=C4[C@@H]3C=CC(C)=C4C

> <minimizedAffinity>
-9.92219

> <minimizedRMSD>
0.34788

> <CNNscore>
0.5133568048

> <CNNaffinity>
6.2457933426

> <CNN_VS>
3.2063205242

> <CNNaffinity_variance>
0.0785645694

$$$$
C1C=CC=C1CC(C=C2Cl)=C(C2=3)C=C(C3)c(c4C)nncc4
                    3D
 Schrodinger Suite 2021-1.
 22 25  0  0  1  0            999 V2000
  -23.8306   20.0959  -10.8901 C   0  0  0  0  0  0
  -21.9476   19.5020  -11.9692 C   0  0  0  0  0  0
  -23.0126   21.2165  -11.0240 C   0  0  0  0  0  0
  -24.5000   21.6079   -9.3891 C   0  0  0  0  0  0
  -21.8118   20.8116  -11.6978 C   0  0  0  0  0  0
  -24.7778   20.3721   -9.8305 C   0  0  0  0  0  0
  -23.2613   19.0312  -11.4193 C   0  0  0  0  0  0
  -23.3198   22.1339  -10.1280 C   0  0  0  0  0  0
  -25.9262   19.2524   -9.1280 Cl  0  0  0  0  0  0
  -20.8278   17.3480  -12.8249 C   0  0  0  0  0  0
  -19.5658   19.3086  -12.4137 N   0  0  0  0  0  0
  -18.4623   17.4411  -13.2784 C   0  0  0  0  0  0
  -22.0643   16.5243  -12.8039 C   0  0  0  0  0  0
  -19.6572   16.7487  -13.2836 C   0  0  0  0  0  0
  -18.4516   18.7113  -12.8265 N   0  0  0  0  0  0
  -20.7772   18.6912  -12.4057 C   0  0  0  0  0  0
  -22.4575   23.3182   -9.7787 C   0  0  0  0  0  0
  -22.1539   23.4517   -8.3097 C   0  0  0  0  0  0
  -21.9088   22.4627   -7.4560 C   0  0  0  0  0  0
  -21.9524   24.7738   -7.6403 C   0  0  0  0  0  0
  -21.6369   24.3499   -6.2448 C   0  0  0  0  0  0
  -21.6064   23.0312   -6.1581 C   0  0  0  0  0  0
  1  3  1  0  0  0
  1  6  1  0  0  0
  1  7  2  0  0  0
  2  5  2  0  0  0
  2  7  1  0  0  0
  2 16  1  0  0  0
  3  5  1  0  0  0
  3  8  2  0  0  0
  4  6  2  0  0  0
  4  8  1  0  0  0
  6  9  1  0  0  0
  8 17  1  0  0  0
 10 13  1  0  0  0
 10 14  2  0  0  0
 10 16  1  0  0  0
 11 15  1  0  0  0
 11 16  2  0  0  0
 12 14  1  0  0  0
 12 15  2  0  0  0
 17 18  1  0  0  0
 18 19  2  0  0  0
 18 20  1  0  0  0
 19 22  1  0  0  0
 20 21  1  0  0  0
 21 22  2  0  0  0
M  END
> <s_m_entry_id>
788

> <s_m_entry_name>
10-myco-2_43_lig_gen_fit_add_gna.sdf.3

> <s_m_Source_Path>
C:\Users\maila\Downloads\mgr\myco-analysis

> <s_m_Source_File>
myco-10-var2-wzakresie.mae

> <i_m_Source_File_Index>
44

> <s_user_SMILES>
C1C=CC=C1CC(C=C2Cl)=C(C2=3)C=C(C3)c(c4C)nncc4

> <minimizedAffinity>
-8.93363

> <minimizedRMSD>
0.3835

> <CNNscore>
0.8132435679

> <CNNaffinity>
6.8031492233

> <CNN_VS>
5.532617569

> <CNNaffinity_variance>
0.1039966941

$$$$
NC1=NC(=C1C)c(c2)ccc3c2n(c(c34)C4)C(C5)=C[C@@H](C=56)CO6
                    3D
 Schrodinger Suite 2021-1.
 25 30  0  0  1  0            999 V2000
  -23.0771   20.8204  -11.2409 C   0  0  0  0  0  0
  -21.7828   18.9310  -12.0601 C   0  0  0  0  0  0
  -24.4027   21.8427  -10.1459 C   0  0  0  0  0  0
  -24.9683   20.5715  -10.3171 C   0  0  0  0  0  0
  -23.2561   22.1399  -10.7025 N   0  0  0  0  0  0
  -22.9077   18.0705  -11.9165 C   0  0  0  0  0  0
  -24.1201   18.5186  -11.4008 C   0  0  0  0  0  0
  -21.8775   20.3150  -11.7533 C   0  0  0  0  0  0
  -24.1808   19.8457  -11.0700 C   0  0  0  0  0  0
  -25.6032   21.5328   -9.5621 C   0  0  0  0  0  0
  -20.4621   18.3466  -12.3431 C   0  0  0  0  0  0
  -19.9862   17.1213  -12.4978 C   0  0  0  0  0  0
  -20.5316   15.7400  -12.4556 C   0  0  0  0  0  0
  -18.6542   17.6746  -12.6025 C   0  0  0  0  0  0
  -17.3572   17.1232  -12.7802 N   0  0  0  0  0  0
  -19.1356   18.8659  -12.4512 N   0  0  0  0  0  0
  -16.5251   17.7355  -12.8928 H   0  0  0  0  0  0
  -17.2314   16.0928  -12.7846 H   0  0  0  0  0  0
  -21.6819   22.8689   -8.9811 C   0  0  0  0  0  0
  -22.2339   24.4756  -10.5696 C   0  0  0  0  0  0
  -22.2935   23.0595  -10.1747 C   0  0  0  0  0  0
  -21.2358   25.0352   -7.5894 C   0  0  0  0  0  0
  -21.5842   24.9411   -9.5385 C   0  0  0  0  0  0
  -20.8771   24.0734   -8.6049 C   0  0  2  0  0  0
  -21.6264   25.9974   -8.5656 O   0  0  0  0  0  0
  1  5  1  0  0  0
  1  8  2  0  0  0
  1  9  1  0  0  0
  2  6  2  0  0  0
  2 11  1  0  0  0
  2  8  1  0  0  0
  3  4  2  0  0  0
  3  5  1  0  0  0
  3 10  1  0  0  0
  4  9  1  0  0  0
  4 10  1  0  0  0
  5 21  1  0  0  0
  6  7  1  0  0  0
  7  9  2  0  0  0
 11 12  2  0  0  0
 11 16  1  0  0  0
 12 13  1  0  0  0
 12 14  1  0  0  0
 14 15  1  0  0  0
 14 16  2  0  0  0
 15 17  1  0  0  0
 15 18  1  0  0  0
 19 21  2  0  0  0
 19 24  1  0  0  0
 20 21  1  0  0  0
 20 23  2  0  0  0
 22 24  1  0  0  0
 22 25  1  0  0  0
 23 24  1  0  0  0
 23 25  1  0  0  0
M  END
> <s_m_entry_id>
789

> <s_m_entry_name>
10-myco-2_43_lig_gen_fit_add_gna.sdf.4

> <s_m_Source_Path>
C:\Users\maila\Downloads\mgr\myco-analysis

> <s_m_Source_File>
myco-10-var2-wzakresie.mae

> <i_m_Source_File_Index>
45

> <s_user_SMILES>
NC1=NC(=C1C)c(c2)ccc3c2n(c(c34)C4)C(C5)=C[C@@H](C=56)CO6

> <minimizedAffinity>
-10.49662

> <minimizedRMSD>
0.68102

> <CNNscore>
0.9841886759

> <CNNaffinity>
7.0034165382

> <CNN_VS>
6.8926830292

> <CNNaffinity_variance>
0.0438554734

$$$$
C1=CCC=CC=C1CC2CC3C([C]=234)=CC(=N4)c(c5C6CO6)c[nH]c5
                    3D
 Schrodinger Suite 2021-1.
 25 30  0  0  1  0            999 V2000
  -24.1872   19.4180   -9.8600 C   0  0  0  0  0  0
  -23.2980   18.0272  -11.9984 C   0  0  0  0  0  0
  -24.0640   18.7878  -11.2761 C   0  0  0  0  0  0
  -25.1928   20.5261   -9.5590 C   0  0  0  0  0  0
  -23.7593   20.1809  -10.9841 C   0  0  0  0  0  0
  -24.5575   21.4034  -10.6250 C   0  0  0  0  0  0
  -22.3879   20.1567  -11.4159 N   0  0  0  0  0  0
  -22.1396   18.9980  -12.0020 C   0  0  0  0  0  0
  -19.7162   19.4747  -11.8932 C   0  0  0  0  0  0
  -20.1565   17.6695  -13.0589 C   0  0  0  0  0  0
  -18.7874   17.8807  -12.9932 C   0  0  0  0  0  0
  -20.7495   18.7157  -12.3756 C   0  0  0  0  0  0
  -18.5392   18.9624  -12.2582 N   0  0  0  0  0  0
  -17.6211   19.2458  -11.8830 H   0  0  0  0  0  0
  -20.7597   16.3637  -13.4111 C   0  0  0  0  0  0
  -19.8330   15.3294  -13.1821 O   0  0  0  0  0  0
  -20.8853   15.4375  -12.2720 C   0  0  0  0  0  0
  -23.5949   22.6128  -10.3588 C   0  0  0  0  0  0
  -20.4873   23.8788   -8.7860 C   0  0  0  0  0  0
  -22.0632   22.3662   -6.7824 C   0  0  0  0  0  0
  -22.9040   22.2606   -7.9926 C   0  0  0  0  0  0
  -22.5524   22.5622   -9.2493 C   0  0  0  0  0  0
  -21.1957   23.0494   -9.5689 C   0  0  0  0  0  0
  -21.2747   23.4107   -6.5334 C   0  0  0  0  0  0
  -21.0420   24.4858   -7.5383 C   0  0  0  0  0  0
  1  3  1  0  0  0
  1  4  1  0  0  0
  1  5  1  0  0  0
  2  3  2  0  0  0
  2  8  1  0  0  0
  3  5  1  0  0  0
  4  6  1  0  0  0
  5  6  2  0  0  0
  5  7  1  0  0  0
  6 18  1  0  0  0
  7  8  2  0  0  0
  8 12  1  0  0  0
  9 12  2  0  0  0
  9 13  1  0  0  0
 10 15  1  0  0  0
 10 11  2  0  0  0
 10 12  1  0  0  0
 11 13  1  0  0  0
 13 14  1  0  0  0
 15 16  1  0  0  0
 15 17  1  0  0  0
 16 17  1  0  0  0
 18 22  1  0  0  0
 19 23  2  0  0  0
 19 25  1  0  0  0
 20 21  1  0  0  0
 20 24  2  0  0  0
 21 22  2  0  0  0
 22 23  1  0  0  0
 24 25  1  0  0  0
M  END
> <s_m_entry_id>
790

> <s_m_entry_name>
10-myco-2_43_lig_gen_fit_add_gna.sdf.7

> <s_m_Source_Path>
C:\Users\maila\Downloads\mgr\myco-analysis

> <s_m_Source_File>
myco-10-var2-wzakresie.mae

> <i_m_Source_File_Index>
46

> <s_user_SMILES>
C1=CCC=CC=C1CC2CC3C([C]=234)=CC(=N4)c(c5C6CO6)c[nH]c5

> <minimizedAffinity>
-8.96497

> <minimizedRMSD>
0.83537

> <CNNscore>
0.6713242531

> <CNNaffinity>
6.7593278885

> <CNN_VS>
4.5377006531

> <CNNaffinity_variance>
0.1026939377

$$$$
NC1=NCC(=C1C)C2=CC=C(F)N(C)C(=C2)c3ccc(N)cc3
                    3D
 Schrodinger Suite 2021-1.
 27 29  0  0  1  0            999 V2000
  -22.4478   19.2078  -11.7544 C   0  0  0  0  0  0
  -25.3340   19.4064  -10.5163 C   0  0  0  0  0  0
  -22.7539   20.6318  -11.5115 C   0  0  0  0  0  0
  -24.7997   18.4745  -11.3086 C   0  0  0  0  0  0
  -25.5891   21.7306   -9.6946 C   0  0  0  0  0  0
  -23.3872   18.2744  -11.6518 C   0  0  0  0  0  0
  -24.7020   20.6375  -10.1007 N   0  0  0  0  0  0
  -23.3486   21.0348  -10.3936 C   0  0  0  0  0  0
  -26.5903   19.1483  -10.0769 F   0  0  0  0  0  0
  -20.9965   18.8694  -11.9622 C   0  0  0  0  0  0
  -20.3501   17.7285  -12.2551 C   0  0  0  0  0  0
  -20.9193   16.3665  -12.4492 C   0  0  0  0  0  0
  -18.9265   18.0555  -12.3372 C   0  0  0  0  0  0
  -18.7077   19.2993  -12.1284 N   0  0  0  0  0  0
  -19.9829   19.9498  -11.9048 C   0  0  0  0  0  0
  -17.8621   17.1586  -12.6418 N   0  0  0  0  0  0
  -16.8742   17.4962  -12.6422 H   0  0  0  0  0  0
  -18.0460   16.1877  -12.9462 H   0  0  0  0  0  0
  -22.2575   23.3183  -10.2845 C   0  0  0  0  0  0
  -21.6776   24.3037   -8.1437 C   0  0  0  0  0  0
  -22.1845   23.1710   -7.4932 C   0  0  0  0  0  0
  -21.7145   24.3714   -9.5431 C   0  0  0  0  0  0
  -22.7539   22.1735   -9.6369 C   0  0  0  0  0  0
  -22.7217   22.1154   -8.2345 C   0  0  0  0  0  0
  -21.1408   25.3894   -7.3841 N   0  0  0  0  0  0
  -21.1200   25.3526   -6.3405 H   0  0  0  0  0  0
  -20.7683   26.2416   -7.8594 H   0  0  0  0  0  0
  1 10  1  0  0  0
  1  3  1  0  0  0
  1  6  2  0  0  0
  2  4  2  0  0  0
  2  7  1  0  0  0
  2  9  1  0  0  0
  3  8  2  0  0  0
  4  6  1  0  0  0
  5  7  1  0  0  0
  7  8  1  0  0  0
  8 23  1  0  0  0
 10 11  2  0  0  0
 10 15  1  0  0  0
 11 12  1  0  0  0
 11 13  1  0  0  0
 13 14  2  0  0  0
 13 16  1  0  0  0
 14 15  1  0  0  0
 16 17  1  0  0  0
 16 18  1  0  0  0
 19 22  2  0  0  0
 19 23  1  0  0  0
 20 21  2  0  0  0
 20 22  1  0  0  0
 20 25  1  0  0  0
 21 24  1  0  0  0
 23 24  2  0  0  0
 25 26  1  0  0  0
 25 27  1  0  0  0
M  END
> <s_m_entry_id>
791

> <s_m_entry_name>
10-myco-2_43_lig_gen_fit_add_gna.sdf.10

> <s_m_Source_Path>
C:\Users\maila\Downloads\mgr\myco-analysis

> <s_m_Source_File>
myco-10-var2-wzakresie.mae

> <i_m_Source_File_Index>
47

> <s_user_SMILES>
NC1=NCC(=C1C)C2=CC=C(F)N(C)C(=C2)c3ccc(N)cc3

> <minimizedAffinity>
-9.68979

> <minimizedRMSD>
0.44805

> <CNNscore>
0.8960743546

> <CNNaffinity>
6.6517472267

> <CNN_VS>
5.960460186

> <CNNaffinity_variance>
0.1658597291

$$$$
c1cccc(O)c1C[C]23=C(C2)C=CC(=C3)c(c4C)cnc(n4)N
                    3D
 Schrodinger Suite 2021-1.
 26 29  0  0  1  0            999 V2000
  -22.5519   20.4700  -11.3466 C   0  0  0  0  0  0
  -25.0380   20.4187  -10.6774 C   0  0  0  0  0  0
  -24.2750   20.5642   -9.3722 C   0  0  0  0  0  0
  -22.5550   19.1725  -11.7449 C   0  0  0  0  0  0
  -24.9955   19.0235  -11.2106 C   0  0  0  0  0  0
  -23.7068   21.1639  -10.6634 C   0  0  0  0  0  0
  -23.8737   18.4573  -11.6705 C   0  0  0  0  0  0
  -21.2202   18.5033  -12.1372 C   0  0  0  0  0  0
  -22.0822   16.1310  -12.6133 C   0  0  0  0  0  0
  -20.0021   19.2155  -11.9746 C   0  0  0  0  0  0
  -18.7341   17.4833  -12.9389 C   0  0  0  0  0  0
  -18.8125   18.7156  -12.3989 N   0  0  0  0  0  0
  -17.4981   16.9482  -13.3846 N   0  0  0  0  0  0
  -19.8323   16.7207  -12.9997 N   0  0  0  0  0  0
  -21.0477   17.1655  -12.6062 C   0  0  0  0  0  0
  -16.6740   17.5440  -13.5753 H   0  0  0  0  0  0
  -17.4283   15.9337  -13.5893 H   0  0  0  0  0  0
  -23.7662   22.6938  -10.7776 C   0  0  0  0  0  0
  -22.5340   24.8473  -10.3225 C   0  0  0  0  0  0
  -20.9137   23.6603   -8.3728 C   0  0  0  0  0  0
  -22.6957   23.4752  -10.0301 C   0  0  0  0  0  0
  -21.5730   25.6067   -9.6395 C   0  0  0  0  0  0
  -23.3349   25.4551  -11.2896 O   0  0  0  0  0  0
  -21.8728   22.8959   -9.0412 C   0  0  0  0  0  0
  -20.7645   25.0137   -8.6705 C   0  0  0  0  0  0
  -23.2367   26.4364  -11.5224 H   0  0  0  0  0  0
  1  4  2  0  0  0
  1  6  1  0  0  0
  2  3  1  0  0  0
  2  5  1  0  0  0
  2  6  2  0  0  0
  3  6  1  0  0  0
  4  8  1  0  0  0
  4  7  1  0  0  0
  5  7  2  0  0  0
  6 18  1  0  0  0
  8 10  2  0  0  0
  8 15  1  0  0  0
  9 15  1  0  0  0
 10 12  1  0  0  0
 11 12  2  0  0  0
 11 13  1  0  0  0
 11 14  1  0  0  0
 13 16  1  0  0  0
 13 17  1  0  0  0
 14 15  2  0  0  0
 18 21  1  0  0  0
 19 21  2  0  0  0
 19 22  1  0  0  0
 19 23  1  0  0  0
 20 24  2  0  0  0
 20 25  1  0  0  0
 21 24  1  0  0  0
 22 25  2  0  0  0
 23 26  1  0  0  0
M  END
> <s_m_entry_id>
792

> <s_m_entry_name>
10-myco-2_44_lig_gen_fit_add_gna.sdf.5

> <s_m_Source_Path>
C:\Users\maila\Downloads\mgr\myco-analysis

> <s_m_Source_File>
myco-10-var2-wzakresie.mae

> <i_m_Source_File_Index>
48

> <s_user_SMILES>
c1cccc(O)c1C[C]23=C(C2)C=CC(=C3)c(c4C)cnc(n4)N

> <minimizedAffinity>
-8.8706

> <minimizedRMSD>
0.30415

> <CNNscore>
0.9017470479

> <CNNaffinity>
6.9193372726

> <CNN_VS>
6.2394919395

> <CNNaffinity_variance>
0.0569666997

$$$$
c1cccc(O)c1CC(C=C2)=C(C3)[C@H]2C=c(n4N5)c=3c(c6c45)ncc6
                    3D
 Schrodinger Suite 2021-1.
 27 32  0  0  1  0            999 V2000
  -21.6318   18.9880  -12.3040 C   0  0  0  0  0  0
  -21.9985   20.2540  -12.0202 C   0  0  0  0  0  0
  -18.1993   18.3360  -11.9303 C   0  0  0  0  0  0
  -23.3429   20.5041  -11.4637 C   0  0  0  0  0  0
  -23.6621   21.4374  -10.5691 C   0  0  0  0  0  0
  -23.8208   18.0739  -11.6410 C   0  0  0  0  0  0
  -19.7670   17.2998  -13.0068 C   0  0  0  0  0  0
  -20.7540   16.4536  -12.7341 C   0  0  0  0  0  0
  -25.1794   19.7657  -10.2711 C   0  0  0  0  0  0
  -22.5767   17.8966  -12.1114 C   0  0  0  0  0  0
  -19.2105   19.2408  -11.9703 N   0  0  0  0  0  0
  -18.4857   17.1607  -12.5883 C   0  0  0  0  0  0
  -22.0161   16.6921  -12.3103 N   0  0  0  0  0  0
  -24.3942   19.4495  -11.4963 C   0  0  1  0  0  0
  -21.5835   15.3847  -12.4560 N   0  0  0  0  0  0
  -20.2358   18.6610  -12.6164 C   0  0  0  0  0  0
  -24.8577   20.9851   -9.8554 C   0  0  0  0  0  0
  -21.6795   14.3526  -12.3512 H   0  0  0  0  0  0
  -22.9466   22.7540  -10.3717 C   0  0  0  0  0  0
  -22.0034   24.3864   -8.7108 C   0  0  0  0  0  0
  -21.9000   25.3144   -9.7481 O   0  0  0  0  0  0
  -22.5781   22.1734   -7.8987 C   0  0  0  0  0  0
  -21.6420   23.8068   -6.3844 C   0  0  0  0  0  0
  -21.5485   24.7241   -7.4307 C   0  0  0  0  0  0
  -22.5518   23.1094   -8.9529 C   0  0  0  0  0  0
  -22.1330   22.5254   -6.6233 C   0  0  0  0  0  0
  -21.5055   26.2361   -9.6007 H   0  0  0  0  0  0
  1  2  2  0  0  0
  1 10  1  0  0  0
  1 16  1  0  0  0
  2  4  1  0  0  0
  3 11  1  0  0  0
  3 12  2  0  0  0
  4  5  2  0  0  0
  4 14  1  0  0  0
  5 19  1  0  0  0
  5 17  1  0  0  0
  6 10  2  0  0  0
  6 14  1  0  0  0
  7  8  2  0  0  0
  7 12  1  0  0  0
  7 16  1  0  0  0
  8 13  1  0  0  0
  8 15  1  0  0  0
  9 14  1  0  0  0
  9 17  2  0  0  0
 10 13  1  0  0  0
 11 16  2  0  0  0
 13 15  1  0  0  0
 15 18  1  0  0  0
 19 25  1  0  0  0
 20 21  1  0  0  0
 20 24  2  0  0  0
 20 25  1  0  0  0
 21 27  1  0  0  0
 22 25  2  0  0  0
 22 26  1  0  0  0
 23 24  1  0  0  0
 23 26  2  0  0  0
M  END
> <s_m_entry_id>
793

> <s_m_entry_name>
10-myco-2_44_lig_gen_fit_add_gna.sdf.8

> <s_m_Source_Path>
C:\Users\maila\Downloads\mgr\myco-analysis

> <s_m_Source_File>
myco-10-var2-wzakresie.mae

> <i_m_Source_File_Index>
49

> <s_user_SMILES>
c1cccc(O)c1CC(C=C2)=C(C3)[C@H]2C=c(n4N5)c=3c(c6c45)ncc6

> <minimizedAffinity>
-9.65099

> <minimizedRMSD>
0.29154

> <CNNscore>
0.7587226033

> <CNNaffinity>
7.0610070229

> <CNN_VS>
5.3573455811

> <CNNaffinity_variance>
0.1752499044

$$$$
c12c3c1nc(CN)c(O)cc3c4c2c(ccc4)Nc5c(O)cccc5
                    3D
 Schrodinger Suite 2021-1.
 30 34  0  0  1  0            999 V2000
  -25.1404   19.3279  -11.0591 C   0  0  0  0  0  0
  -23.2984   20.8947  -11.5211 C   0  0  0  0  0  0
  -20.7606   16.9724  -12.2362 C   0  0  0  0  0  0
  -23.9501   21.9620  -10.9360 C   0  0  0  0  0  0
  -25.2389   21.7139  -10.4305 C   0  0  0  0  0  0
  -20.8825   19.8348  -11.8817 C   0  0  0  0  0  0
  -23.8494   19.5114  -11.5552 C   0  0  0  0  0  0
  -25.8178   20.4271  -10.4940 C   0  0  0  0  0  0
  -22.2208   17.1828  -12.1014 C   0  0  0  0  0  0
  -19.6193   17.9373  -12.1703 C   0  0  0  0  0  0
  -20.3943   15.6415  -12.4432 O   0  0  0  0  0  0
  -19.6739   19.3257  -12.0538 N   0  0  0  0  0  0
  -22.0425   20.5291  -11.6857 C   0  0  0  0  0  0
  -22.8931   18.3998  -11.8562 C   0  0  0  0  0  0
  -22.0282   19.2629  -11.8470 C   0  0  0  0  0  0
  -21.0641   14.8832  -12.4663 H   0  0  0  0  0  0
  -17.9243   16.9135  -13.5542 N   0  0  0  0  0  0
  -18.2340   17.3661  -12.2105 C   0  0  0  0  0  0
  -17.8654   17.7601  -14.1610 H   0  0  0  0  0  0
  -16.9654   16.5005  -13.5290 H   0  0  0  0  0  0
  -23.2852   23.2072  -10.7171 N   0  0  0  0  0  0
  -23.3399   23.9198  -11.4774 H   0  0  0  0  0  0
  -21.8498   22.9498   -7.2558 C   0  0  0  0  0  0
  -22.4938   23.4726   -9.5453 C   0  0  0  0  0  0
  -21.5419   24.5097   -9.5635 C   0  0  0  0  0  0
  -22.6319   22.6884   -8.3817 C   0  0  0  0  0  0
  -20.7617   24.7629   -8.4275 C   0  0  0  0  0  0
  -21.3792   25.2911  -10.7068 O   0  0  0  0  0  0
  -20.9288   23.9960   -7.2733 C   0  0  0  0  0  0
  -20.7071   26.0485  -10.7401 H   0  0  0  0  0  0
  1  7  2  0  0  0
  1  8  1  0  0  0
  2  4  2  0  0  0
  2  7  1  0  0  0
  2 13  1  0  0  0
  3  9  2  0  0  0
  3 10  1  0  0  0
  3 11  1  0  0  0
  4  5  1  0  0  0
  4 21  1  0  0  0
  5  8  2  0  0  0
  6 12  1  0  0  0
  6 13  2  0  0  0
  6 15  1  0  0  0
  7 14  1  0  0  0
  9 14  1  0  0  0
 10 18  1  0  0  0
 10 12  2  0  0  0
 11 16  1  0  0  0
 13 15  1  0  0  0
 14 15  2  0  0  0
 17 18  1  0  0  0
 17 19  1  0  0  0
 17 20  1  0  0  0
 21 24  1  0  0  0
 21 22  1  0  0  0
 23 26  2  0  0  0
 23 29  1  0  0  0
 24 25  2  0  0  0
 24 26  1  0  0  0
 25 27  1  0  0  0
 25 28  1  0  0  0
 27 29  2  0  0  0
 28 30  1  0  0  0
M  END
> <s_m_entry_id>
794

> <s_m_entry_name>
10-myco-2_44_lig_gen_fit_add_gna.sdf.9

> <s_m_Source_Path>
C:\Users\maila\Downloads\mgr\myco-analysis

> <s_m_Source_File>
myco-10-var2-wzakresie.mae

> <i_m_Source_File_Index>
50

> <s_user_SMILES>
c12c3c1nc(CN)c(O)cc3c4c2c(ccc4)Nc5c(O)cccc5

> <minimizedAffinity>
-10.98798

> <minimizedRMSD>
0.57494

> <CNNscore>
0.9746269584

> <CNNaffinity>
7.2927985191

> <CNN_VS>
7.1077580452

> <CNNaffinity_variance>
0.1054290533

$$$$
N1CCC[C@@H]1CC(=CC=C2)C3=C([C@@]234)C=5C(=C4)C(C)=CC5
                    3D
 Schrodinger Suite 2021-1.
 21 25  0  0  1  0            999 V2000
  -23.8195   21.9544  -10.5313 C   0  0  0  0  0  0
  -20.5970   17.0860  -12.3733 C   0  0  0  0  0  0
  -24.7274   21.5421   -9.6230 C   0  0  0  0  0  0
  -21.0217   19.2723  -11.9468 C   0  0  0  0  0  0
  -24.2532   19.1315  -10.1106 C   0  0  0  0  0  0
  -22.9717   18.0886  -11.9610 C   0  0  0  0  0  0
  -22.2093   19.9577  -11.5976 C   0  0  0  0  0  0
  -19.4369   17.7557  -12.3236 C   0  0  0  0  0  0
  -20.7448   15.6135  -12.3005 C   0  0  0  0  0  0
  -19.7124   19.1842  -12.0581 C   0  0  0  0  0  0
  -24.9133   20.0693   -9.3627 C   0  0  0  0  0  0
  -23.2391   20.8107  -11.1928 C   0  0  0  0  0  0
  -21.6455   18.0612  -12.1580 C   0  0  0  0  0  0
  -23.5438   19.4427  -11.4531 C   0  0  2  0  0  0
  -23.2320   23.3408  -10.5550 C   0  0  0  0  0  0
  -20.9358   23.5755   -9.4555 C   0  0  0  0  0  0
  -22.4480   23.6588   -9.2627 C   0  0  1  0  0  0
  -20.3604   24.6464   -8.5508 C   0  0  0  0  0  0
  -22.7392   24.9979   -8.7479 N   0  0  1  0  0  0
  -21.5628   25.3729   -7.9691 C   0  0  0  0  0  0
  -22.7958   25.6652   -9.5535 H   0  0  0  0  0  0
  1  3  2  0  0  0
  1 15  1  0  0  0
  1 12  1  0  0  0
  2  8  2  0  0  0
  2  9  1  0  0  0
  2 13  1  0  0  0
  3 11  1  0  0  0
  4  7  1  0  0  0
  4 10  2  0  0  0
  4 13  1  0  0  0
  5 11  2  0  0  0
  5 14  1  0  0  0
  6 13  2  0  0  0
  6 14  1  0  0  0
  7 12  2  0  0  0
  7 14  1  0  0  0
  8 10  1  0  0  0
 12 14  1  0  0  0
 15 17  1  0  0  0
 16 17  1  0  0  0
 16 18  1  0  0  0
 17 19  1  0  0  0
 18 20  1  0  0  0
 19 20  1  0  0  0
 19 21  1  0  0  0
M  END
> <s_m_entry_id>
795

> <s_m_entry_name>
10-myco-2_45_lig_gen_fit_add_gna.sdf.3

> <s_m_Source_Path>
C:\Users\maila\Downloads\mgr\myco-analysis

> <s_m_Source_File>
myco-10-var2-wzakresie.mae

> <i_m_Source_File_Index>
51

> <s_user_SMILES>
N1CCC[C@@H]1CC(=CC=C2)C3=C([C@@]234)C=5C(=C4)C(C)=CC5

> <minimizedAffinity>
-9.57923

> <minimizedRMSD>
1.07206

> <CNNscore>
0.8795447946

> <CNNaffinity>
6.5075888634

> <CNN_VS>
5.7237157822

> <CNNaffinity_variance>
0.0510612801

$$$$
CCNCCNc1cccc(c2)c1cc(c23)ncnc3C
                    3D
 Schrodinger Suite 2021-1.
 23 25  0  0  1  0            999 V2000
  -23.3689   19.0201  -11.3942 C   0  0  0  0  0  0
  -21.3242   20.3028  -11.7294 C   0  0  0  0  0  0
  -23.3840   21.4360  -11.0107 C   0  0  0  0  0  0
  -25.3344   20.0964  -10.4647 C   0  0  0  0  0  0
  -24.6938   21.3348  -10.5214 C   0  0  0  0  0  0
  -18.5548   17.9835  -12.1693 C   0  0  0  0  0  0
  -20.5422   16.7283  -12.3078 C   0  0  0  0  0  0
  -21.1474   15.3898  -12.4845 C   0  0  0  0  0  0
  -19.1909   16.8063  -12.3352 N   0  0  0  0  0  0
  -22.6952   20.2680  -11.4096 C   0  0  0  0  0  0
  -21.3106   17.8874  -12.0574 C   0  0  0  0  0  0
  -24.6899   18.9477  -10.9257 C   0  0  0  0  0  0
  -20.6235   19.1141  -11.9721 C   0  0  0  0  0  0
  -22.6934   17.8525  -11.7837 C   0  0  0  0  0  0
  -19.2662   19.1246  -12.0031 N   0  0  0  0  0  0
  -22.8187   22.7286  -11.2663 N   0  0  0  0  0  0
  -22.6243   22.9335  -12.2672 H   0  0  0  0  0  0
  -22.9281   23.9008  -10.4007 C   0  0  0  0  0  0
  -22.4179   23.6513   -8.9791 C   0  0  0  0  0  0
  -22.6319   24.8437   -8.1427 N   0  0  1  0  0  0
  -23.2798   24.5738   -7.3656 H   0  0  0  0  0  0
  -20.6601   26.2480   -8.5560 C   0  0  0  0  0  0
  -21.3832   25.3609   -7.5513 C   0  0  0  0  0  0
  1 10  1  0  0  0
  1 12  1  0  0  0
  1 14  2  0  0  0
  2 10  2  0  0  0
  2 13  1  0  0  0
  3  5  2  0  0  0
  3 10  1  0  0  0
  3 16  1  0  0  0
  4  5  1  0  0  0
  4 12  2  0  0  0
  6  9  2  0  0  0
  6 15  1  0  0  0
  7  8  1  0  0  0
  7  9  1  0  0  0
  7 11  2  0  0  0
 11 13  1  0  0  0
 11 14  1  0  0  0
 13 15  2  0  0  0
 16 18  1  0  0  0
 16 17  1  0  0  0
 18 19  1  0  0  0
 19 20  1  0  0  0
 20 23  1  0  0  0
 20 21  1  0  0  0
 22 23  1  0  0  0
M  END
> <s_m_entry_id>
796

> <s_m_entry_name>
10-myco-2_45_lig_gen_fit_add_gna.sdf.4

> <s_m_Source_Path>
C:\Users\maila\Downloads\mgr\myco-analysis

> <s_m_Source_File>
myco-10-var2-wzakresie.mae

> <i_m_Source_File_Index>
52

> <s_user_SMILES>
CCNCCNc1cccc(c2)c1cc(c23)ncnc3C

> <minimizedAffinity>
-8.74939

> <minimizedRMSD>
0.69638

> <CNNscore>
0.9953927994

> <CNNaffinity>
6.8671178818

> <CNN_VS>
6.8354797363

> <CNNaffinity_variance>
0.1334676296

$$$$
CN(C1)CCCC1C2C=CC(=C3)C=2C4C3=[C]45C(=C(N)N=N5)OC
                    3D
 Schrodinger Suite 2021-1.
 25 29  0  0  1  0            999 V2000
  -23.1221   21.0468  -10.9582 C   0  0  0  0  0  0
  -24.0068   20.1805  -10.3118 C   0  0  0  0  0  0
  -22.9013   18.9486  -11.8737 C   0  0  0  0  0  0
  -23.0226   22.1346  -10.1887 C   0  0  0  0  0  0
  -21.3804   19.2290  -11.7392 C   0  0  0  0  0  0
  -20.3600   20.0506  -11.1084 N   0  0  0  0  0  0
  -19.3469   18.7799  -12.5937 C   0  0  0  0  0  0
  -22.4066   20.3486  -12.1028 C   0  0  0  0  0  0
  -23.9908   21.9882   -9.0715 C   0  0  0  0  0  0
  -20.6010   18.3979  -12.6857 C   0  0  0  0  0  0
  -23.8604   18.9613  -10.7193 C   0  0  0  0  0  0
  -19.2181   19.7854  -11.6043 N   0  0  0  0  0  0
  -24.5608   20.7893   -9.1294 C   0  0  0  0  0  0
  -18.2498   18.0015  -13.0732 N   0  0  0  0  0  0
  -17.3191   18.0615  -12.6118 H   0  0  0  0  0  0
  -18.3939   17.2645  -13.7990 H   0  0  0  0  0  0
  -21.3832   23.6645   -9.0053 C   0  0  0  0  0  0
  -21.6270   26.0586   -9.3480 C   0  0  0  0  0  0
  -22.0873   23.2963  -10.3430 C   0  0  0  0  0  0
  -22.8831   24.4915  -10.8911 C   0  0  0  0  0  0
  -21.9225   24.9230   -8.4475 N   0  0  0  0  0  0
  -21.3732   25.1804   -7.1092 C   0  0  0  0  0  0
  -22.0522   25.7661  -10.8020 C   0  0  0  0  0  0
  -20.9645   17.1365  -13.1537 O   0  0  0  0  0  0
  -20.8889   16.0100  -12.2930 C   0  0  0  0  0  0
  1  2  1  0  0  0
  1  4  2  0  0  0
  1  8  1  0  0  0
  2 11  2  0  0  0
  2 13  1  0  0  0
  3  5  2  0  0  0
  3  8  1  0  0  0
  3 11  1  0  0  0
  4 19  1  0  0  0
  4  9  1  0  0  0
  5  6  1  0  0  0
  5  8  1  0  0  0
  5 10  1  0  0  0
  6 12  2  0  0  0
  7 10  2  0  0  0
  7 12  1  0  0  0
  7 14  1  0  0  0
  9 13  2  0  0  0
 10 24  1  0  0  0
 14 15  1  0  0  0
 14 16  1  0  0  0
 17 19  1  0  0  0
 17 21  1  0  0  0
 18 21  1  0  0  0
 18 23  1  0  0  0
 19 20  1  0  0  0
 20 23  1  0  0  0
 21 22  1  0  0  0
 24 25  1  0  0  0
M  END
> <s_m_entry_id>
797

> <s_m_entry_name>
10-myco-2_45_lig_gen_fit_add_gna.sdf.5

> <s_m_Source_Path>
C:\Users\maila\Downloads\mgr\myco-analysis

> <s_m_Source_File>
myco-10-var2-wzakresie.mae

> <i_m_Source_File_Index>
53

> <s_user_SMILES>
CN(C1)CCCC1C2C=CC(=C3)C=2C4C3=[C]45C(=C(N)N=N5)OC

> <minimizedAffinity>
-8.22737

> <minimizedRMSD>
0.27358

> <CNNscore>
0.8299372196

> <CNNaffinity>
6.7563791275

> <CNN_VS>
5.6073703766

> <CNNaffinity_variance>
0.0653020665

$$$$
OC[C]1(O)=CN=CC(=C1)C2=CC=CCC(=C2)NC3C(N)CCC3
                    3D
 Schrodinger Suite 2021-1.
 28 30  0  0  1  0            999 V2000
  -23.8809   22.0965  -10.7045 C   0  0  0  0  0  0
  -24.2899   19.0380  -11.0745 C   0  0  0  0  0  0
  -25.0454   19.3375   -9.8569 C   0  0  0  0  0  0
  -22.9631   21.1825  -11.0208 C   0  0  0  0  0  0
  -25.3427   20.5701   -9.4831 C   0  0  0  0  0  0
  -25.3002   21.7258  -10.4345 C   0  0  0  0  0  0
  -23.2030   19.7560  -11.4289 C   0  0  0  0  0  0
  -22.0361   19.0735  -12.0531 C   0  0  0  0  0  0
  -20.6109   17.1061  -12.5112 C   0  0  0  0  0  0
  -21.9064   17.7332  -12.0721 C   0  0  0  0  0  0
  -20.8415   19.8824  -12.3511 C   0  0  0  0  0  0
  -20.6435   17.0566  -13.8726 O   0  0  0  0  0  0
  -19.6576   19.3578  -12.3773 N   0  0  0  0  0  0
  -19.4201   17.9676  -12.0521 C   0  0  0  0  0  0
  -19.7891   16.6358  -14.1702 H   0  0  0  0  0  0
  -20.4497   15.6893  -12.0380 C   0  0  0  0  0  0
  -20.7930   14.7769  -13.0545 O   0  0  0  0  0  0
  -21.3381   14.0571  -12.6560 H   0  0  0  0  0  0
  -23.5143   23.4843  -10.7327 N   0  0  0  0  0  0
  -24.1452   24.1281  -11.2587 H   0  0  0  0  0  0
  -22.2019   23.7784   -8.6592 C   0  0  0  0  0  0
  -21.2070   25.9519   -9.2159 C   0  0  0  0  0  0
  -21.4234   24.9563   -8.0794 C   0  0  0  0  0  0
  -22.1251   25.5071  -10.3487 C   0  0  0  0  0  0
  -21.5520   25.8356  -11.6538 N   0  0  0  0  0  0
  -22.2582   23.9956  -10.1662 C   0  0  0  0  0  0
  -21.4893   26.8771  -11.7249 H   0  0  0  0  0  0
  -22.2278   25.5329  -12.3924 H   0  0  0  0  0  0
  1  4  2  0  0  0
  1 19  1  0  0  0
  1  6  1  0  0  0
  2  3  1  0  0  0
  2  7  2  0  0  0
  3  5  2  0  0  0
  4  7  1  0  0  0
  5  6  1  0  0  0
  7  8  1  0  0  0
  8 10  2  0  0  0
  8 11  1  0  0  0
  9 16  1  0  0  0
  9 10  1  0  0  0
  9 12  1  0  0  0
  9 14  2  0  0  0
 11 13  2  0  0  0
 12 15  1  0  0  0
 13 14  1  0  0  0
 16 17  1  0  0  0
 17 18  1  0  0  0
 19 26  1  0  0  0
 19 20  1  0  0  0
 21 23  1  0  0  0
 21 26  1  0  0  0
 22 23  1  0  0  0
 22 24  1  0  0  0
 24 25  1  0  0  0
 24 26  1  0  0  0
 25 27  1  0  0  0
 25 28  1  0  0  0
M  END
> <s_m_entry_id>
798

> <s_m_entry_name>
10-myco-2_46_lig_gen_fit_add_gna.sdf.3

> <s_m_Source_Path>
C:\Users\maila\Downloads\mgr\myco-analysis

> <s_m_Source_File>
myco-10-var2-wzakresie.mae

> <i_m_Source_File_Index>
54

> <s_user_SMILES>
OC[C]1(O)=CN=CC(=C1)C2=CC=CCC(=C2)NC3C(N)CCC3

> <minimizedAffinity>
-9.13934

> <minimizedRMSD>
0.85197

> <CNNscore>
0.762486577

> <CNNaffinity>
6.4116034508

> <CNN_VS>
4.8887615204

> <CNNaffinity_variance>
0.2310847938

$$$$
C1C=NC(=C1CN)C(=C2)C=C(C2=3)C=CC3C4=CCN[C@H]([C@H]45)C5
                    3D
 Schrodinger Suite 2021-1.
 25 29  0  0  1  0            999 V2000
  -23.4843   20.8184  -10.7734 C   0  0  0  0  0  0
  -22.2821   19.3281  -11.9739 C   0  0  0  0  0  0
  -24.2260   19.6090  -10.9009 C   0  0  0  0  0  0
  -24.4634   20.4089   -8.8050 C   0  0  0  0  0  0
  -23.6616   21.2908   -9.4106 C   0  0  0  0  0  0
  -22.3379   20.6934  -11.4140 C   0  0  0  0  0  0
  -24.8128   19.3307   -9.7456 C   0  0  0  0  0  0
  -23.4386   18.6993  -11.7146 C   0  0  0  0  0  0
  -21.6028   23.2995   -6.8561 C   0  0  0  0  0  0
  -20.9948   23.8593   -9.7066 C   0  0  0  0  0  0
  -21.9062   24.7606   -8.8721 C   0  0  1  0  0  0
  -22.8759   22.3699   -8.7686 C   0  0  0  0  0  0
  -22.4858   22.2706   -7.4902 C   0  0  0  0  0  0
  -22.4927   23.5631   -9.6110 C   0  0  2  0  0  0
  -21.8485   24.6427   -7.3994 N   0  0  2  0  0  0
  -21.0842   25.2728   -7.0636 H   0  0  0  0  0  0
  -20.6333   17.4550  -12.5508 C   0  0  0  0  0  0
  -19.8016   19.5019  -12.1507 N   0  0  0  0  0  0
  -20.9701   18.7269  -12.3177 C   0  0  0  0  0  0
  -18.7819   18.7396  -12.3122 C   0  0  0  0  0  0
  -19.1442   17.3421  -12.6030 C   0  0  0  0  0  0
  -21.5241   16.2705  -12.5142 C   0  0  0  0  0  0
  -20.8058   15.1214  -11.9750 N   0  0  0  0  0  0
  -21.4771   14.3951  -11.6536 H   0  0  0  0  0  0
  -20.2395   14.6975  -12.7346 H   0  0  0  0  0  0
  1  3  1  0  0  0
  1  5  2  0  0  0
  1  6  1  0  0  0
  2 19  1  0  0  0
  2  6  2  0  0  0
  2  8  1  0  0  0
  3  7  1  0  0  0
  3  8  2  0  0  0
  4  5  1  0  0  0
  4  7  2  0  0  0
  5 12  1  0  0  0
  9 13  1  0  0  0
  9 15  1  0  0  0
 10 11  1  0  0  0
 10 14  1  0  0  0
 11 14  1  0  0  0
 11 15  1  0  0  0
 12 13  2  0  0  0
 12 14  1  0  0  0
 15 16  1  0  0  0
 17 19  2  0  0  0
 17 22  1  0  0  0
 17 21  1  0  0  0
 18 19  1  0  0  0
 18 20  2  0  0  0
 20 21  1  0  0  0
 22 23  1  0  0  0
 23 24  1  0  0  0
 23 25  1  0  0  0
M  END
> <s_m_entry_id>
799

> <s_m_entry_name>
10-myco-2_46_lig_gen_fit_add_gna.sdf.5

> <s_m_Source_Path>
C:\Users\maila\Downloads\mgr\myco-analysis

> <s_m_Source_File>
myco-10-var2-wzakresie.mae

> <i_m_Source_File_Index>
55

> <s_user_SMILES>
C1C=NC(=C1CN)C(=C2)C=C(C2=3)C=CC3C4=CCN[C@H]([C@H]45)C5

> <minimizedAffinity>
-9.31278

> <minimizedRMSD>
0.33445

> <CNNscore>
0.7164189816

> <CNNaffinity>
6.783367157

> <CNN_VS>
4.8597331047

> <CNNaffinity_variance>
0.2266472131

$$$$
CCNCCCC1=CC=C(C1=2)Cc3c(C2)nccc3
                    3D
 Schrodinger Suite 2021-1.
 20 22  0  0  1  0            999 V2000
  -23.3329   18.8918  -11.6193 C   0  0  0  0  0  0
  -22.6087   20.1380  -11.6256 C   0  0  0  0  0  0
  -20.6248   18.9774  -12.3814 C   0  0  0  0  0  0
  -18.5789   17.8440  -12.7628 C   0  0  0  0  0  0
  -23.4372   21.0966  -10.9049 C   0  0  0  0  0  0
  -19.2410   16.6549  -12.9971 C   0  0  0  0  0  0
  -22.8119   17.6567  -12.2874 C   0  0  0  0  0  0
  -24.4677   19.0574  -10.9541 C   0  0  0  0  0  0
  -19.2703   18.9825  -12.4941 N   0  0  0  0  0  0
  -20.6208   16.5965  -12.8527 C   0  0  0  0  0  0
  -21.3262   17.7491  -12.4977 C   0  0  0  0  0  0
  -24.5268   20.4500  -10.4887 C   0  0  0  0  0  0
  -21.3334   20.2222  -12.0000 C   0  0  0  0  0  0
  -23.1702   22.5634  -10.7345 C   0  0  0  0  0  0
  -22.2527   22.8278   -9.5404 C   0  0  0  0  0  0
  -21.5751   24.1980   -9.6569 C   0  0  0  0  0  0
  -21.1546   24.6719   -8.3323 N   0  0  1  0  0  0
  -20.8521   25.6703   -8.4290 H   0  0  0  0  0  0
  -21.8013   24.0247   -6.0673 C   0  0  0  0  0  0
  -22.2682   24.6370   -7.3769 C   0  0  0  0  0  0
  1  2  1  0  0  0
  1  7  1  0  0  0
  1  8  2  0  0  0
  2  5  1  0  0  0
  2 13  2  0  0  0
  3  9  2  0  0  0
  3 11  1  0  0  0
  3 13  1  0  0  0
  4  6  2  0  0  0
  4  9  1  0  0  0
  5 14  1  0  0  0
  5 12  2  0  0  0
  6 10  1  0  0  0
  7 11  1  0  0  0
  8 12  1  0  0  0
 10 11  2  0  0  0
 14 15  1  0  0  0
 15 16  1  0  0  0
 16 17  1  0  0  0
 17 20  1  0  0  0
 17 18  1  0  0  0
 19 20  1  0  0  0
M  END
> <s_m_entry_id>
800

> <s_m_entry_name>
10-myco-2_46_lig_gen_fit_add_gna.sdf.10

> <s_m_Source_Path>
C:\Users\maila\Downloads\mgr\myco-analysis

> <s_m_Source_File>
myco-10-var2-wzakresie.mae

> <i_m_Source_File_Index>
56

> <s_user_SMILES>
CCNCCCC1=CC=C(C1=2)Cc3c(C2)nccc3

> <minimizedAffinity>
-8.00438

> <minimizedRMSD>
0.46863

> <CNNscore>
0.9607203603

> <CNNaffinity>
6.3576259613

> <CNN_VS>
6.1079006195

> <CNNaffinity_variance>
0.0538118482

$$$$
C1=CCC=C1CCc2ccc(cc2)-n(cc3)c(c34)[C@H](C=C4)c5ccn[nH]5
                    3D
 Schrodinger Suite 2021-1.
 27 31  0  0  1  0            999 V2000
  -23.5653   20.6074  -10.7897 C   0  0  0  0  0  0
  -24.7869   20.0848  -10.4453 C   0  0  0  0  0  0
  -25.6819   21.1090  -10.3148 C   0  0  0  0  0  0
  -23.1249   19.8151  -11.9989 C   0  0  2  0  0  0
  -25.0496   18.8417  -11.1009 C   0  0  0  0  0  0
  -24.9486   22.2436  -10.5119 C   0  0  0  0  0  0
  -23.6542   21.9595  -10.7692 N   0  0  0  0  0  0
  -24.0681   18.6511  -11.9550 C   0  0  0  0  0  0
  -21.7954   23.8685   -8.1833 C   0  0  0  0  0  0
  -22.0698   23.8194  -10.9643 C   0  0  0  0  0  0
  -21.1961   24.8856   -8.9518 C   0  0  0  0  0  0
  -21.3275   24.8343  -10.3514 C   0  0  0  0  0  0
  -22.5171   22.8479   -8.7998 C   0  0  0  0  0  0
  -22.6619   22.8142  -10.1928 C   0  0  0  0  0  0
  -20.4390   26.0536   -8.3411 C   0  0  0  0  0  0
  -19.7118   25.7801   -7.0085 C   0  0  0  0  0  0
  -18.4207   22.3958   -6.2527 C   0  0  0  0  0  0
  -19.2241   23.4169   -6.0075 C   0  0  0  0  0  0
  -17.9691   24.0777   -7.7680 C   0  0  0  0  0  0
  -18.9381   24.4826   -6.9527 C   0  0  0  0  0  0
  -17.5267   22.6986   -7.4080 C   0  0  0  0  0  0
  -21.6846   19.4071  -12.1072 C   0  0  0  0  0  0
  -19.8356   18.3200  -12.5434 C   0  0  0  0  0  0
  -21.1832   18.1334  -12.3265 C   0  0  0  0  0  0
  -20.6820   20.2840  -12.2477 N   0  0  0  0  0  0
  -19.5550   19.6341  -12.4955 N   0  0  0  0  0  0
  -20.7668   21.3221  -12.1761 H   0  0  0  0  0  0
  1  2  2  0  0  0
  1  4  1  0  0  0
  1  7  1  0  0  0
  2  3  1  0  0  0
  2  5  1  0  0  0
  3  6  2  0  0  0
  4 22  1  0  0  0
  4  8  1  0  0  0
  5  8  2  0  0  0
  6  7  1  0  0  0
  7 14  1  0  0  0
  9 11  2  0  0  0
  9 13  1  0  0  0
 10 12  2  0  0  0
 10 14  1  0  0  0
 11 12  1  0  0  0
 11 15  1  0  0  0
 13 14  2  0  0  0
 15 16  1  0  0  0
 16 20  1  0  0  0
 17 18  2  0  0  0
 17 21  1  0  0  0
 18 20  1  0  0  0
 19 20  2  0  0  0
 19 21  1  0  0  0
 22 24  2  0  0  0
 22 25  1  0  0  0
 23 24  1  0  0  0
 23 26  2  0  0  0
 25 26  1  0  0  0
 25 27  1  0  0  0
M  END
> <s_m_entry_id>
801

> <s_m_entry_name>
10-myco-2_47_lig_gen_fit_add_gna.sdf.1

> <s_m_Source_Path>
C:\Users\maila\Downloads\mgr\myco-analysis

> <s_m_Source_File>
myco-10-var2-wzakresie.mae

> <i_m_Source_File_Index>
57

> <s_user_SMILES>
C1=CCC=C1CCc2ccc(cc2)-n(cc3)c(c34)[C@H](C=C4)c5ccn[nH]5

> <minimizedAffinity>
-8.12021

> <minimizedRMSD>
0.67928

> <CNNscore>
0.8710339069

> <CNNaffinity>
6.7194671631

> <CNN_VS>
5.8528838158

> <CNNaffinity_variance>
0.0958907083

$$$$
CC(C)CCCc1ccc(cc1)Cc([nH]2)cc(c23)=NC=3c4c(c45)[nH]c5N
                    3D
 Schrodinger Suite 2021-1.
 30 34  0  0  1  0            999 V2000
  -22.2350   18.5426  -12.1586 C   0  0  0  0  0  0
  -24.7701   20.2509  -11.1221 C   0  0  0  0  0  0
  -22.7637   19.8102  -11.7927 C   0  0  0  0  0  0
  -23.8617   21.3594  -11.0245 C   0  0  0  0  0  0
  -23.4334   18.0319  -12.0924 N   0  0  0  0  0  0
  -23.9361   19.2926  -11.6230 C   0  0  0  0  0  0
  -22.6038   21.0799  -11.4897 N   0  0  0  0  0  0
  -21.7316   21.6540  -11.4804 H   0  0  0  0  0  0
  -18.4922   17.1654  -12.7271 C   0  0  0  0  0  0
  -19.6986   18.5716  -12.8091 C   0  0  0  0  0  0
  -17.6382   16.0596  -12.8497 N   0  0  0  0  0  0
  -19.8122   17.3841  -12.4271 C   0  0  0  0  0  0
  -20.8677   18.1600  -12.3791 C   0  0  0  0  0  0
  -18.4539   18.6414  -13.1558 N   0  0  0  0  0  0
  -16.6313   16.1919  -13.0771 H   0  0  0  0  0  0
  -18.1229   15.1800  -13.1001 H   0  0  0  0  0  0
  -17.7914   19.3257  -13.5649 H   0  0  0  0  0  0
  -24.1625   22.6597  -10.3741 C   0  0  0  0  0  0
  -22.4117   24.2013   -9.3852 C   0  0  0  0  0  0
  -21.9923   22.4421   -7.2529 C   0  0  0  0  0  0
  -21.6340   24.5986   -8.2925 C   0  0  0  0  0  0
  -21.4739   23.7457   -7.1862 C   0  0  0  0  0  0
  -23.0947   22.9750   -9.3524 C   0  0  0  0  0  0
  -22.8066   22.0619   -8.3252 C   0  0  0  0  0  0
  -20.9708   24.2928   -5.8686 C   0  0  0  0  0  0
  -19.4947   23.9727   -5.5745 C   0  0  0  0  0  0
  -18.5104   24.9216   -6.2863 C   0  0  0  0  0  0
  -17.8717   22.7229   -7.3973 C   0  0  0  0  0  0
  -17.7067   24.2488   -7.4173 C   0  0  0  0  0  0
  -16.2244   24.6314   -7.3233 C   0  0  0  0  0  0
  1  3  2  0  0  0
  1 13  1  0  0  0
  1  5  1  0  0  0
  2  4  2  0  0  0
  2  6  1  0  0  0
  3  6  1  0  0  0
  3  7  1  0  0  0
  4 18  1  0  0  0
  4  7  1  0  0  0
  5  6  2  0  0  0
  7  8  1  0  0  0
  9 11  1  0  0  0
  9 12  2  0  0  0
  9 14  1  0  0  0
 10 12  1  0  0  0
 10 13  2  0  0  0
 10 14  1  0  0  0
 11 15  1  0  0  0
 11 16  1  0  0  0
 12 13  1  0  0  0
 14 17  1  0  0  0
 18 23  1  0  0  0
 19 21  2  0  0  0
 19 23  1  0  0  0
 20 22  2  0  0  0
 20 24  1  0  0  0
 21 22  1  0  0  0
 22 25  1  0  0  0
 23 24  2  0  0  0
 25 26  1  0  0  0
 26 27  1  0  0  0
 27 29  1  0  0  0
 28 29  1  0  0  0
 29 30  1  0  0  0
M  END
> <s_m_entry_id>
802

> <s_m_entry_name>
10-myco-2_47_lig_gen_fit_add_gna.sdf.2

> <s_m_Source_Path>
C:\Users\maila\Downloads\mgr\myco-analysis

> <s_m_Source_File>
myco-10-var2-wzakresie.mae

> <i_m_Source_File_Index>
58

> <s_user_SMILES>
CC(C)CCCc1ccc(cc1)Cc([nH]2)cc(c23)=NC=3c4c(c45)[nH]c5N

> <minimizedAffinity>
-8.40297

> <minimizedRMSD>
0.57243

> <CNNscore>
0.39904809

> <CNNaffinity>
6.2906241417

> <CNN_VS>
2.5102615356

> <CNNaffinity_variance>
0.0681730136

$$$$
C=CCc1ccc(cc1)CC(=CC=C2)C3=C(C234)C(=C4)c5cccnn5
                    3D
 Schrodinger Suite 2021-1.
 25 29  0  0  1  0            999 V2000
  -25.0916   20.3139  -11.2104 C   0  0  0  0  0  0
  -23.3788   18.5483  -11.8083 C   0  0  0  0  0  0
  -23.3331   22.4409  -10.5143 C   0  0  0  0  0  0
  -25.5801   21.4475  -10.6346 C   0  0  0  0  0  0
  -22.1307   18.9525  -12.3029 C   0  0  0  0  0  0
  -23.0413   21.1479  -11.0520 C   0  0  0  0  0  0
  -22.5130   20.0610  -11.7236 C   0  0  0  0  0  0
  -24.6352   22.5277  -10.2008 C   0  0  0  0  0  0
  -23.6349   19.9120  -10.9891 C   0  0  3  0  0  0
  -18.5741   16.9400  -13.1267 C   0  0  0  0  0  0
  -19.7508   18.9476  -12.8267 N   0  0  0  0  0  0
  -20.9543   16.9035  -12.8581 C   0  0  0  0  0  0
  -19.7694   16.2226  -13.0302 C   0  0  0  0  0  0
  -18.6032   18.2946  -13.0229 N   0  0  0  0  0  0
  -20.9349   18.2849  -12.7598 C   0  0  0  0  0  0
  -22.3342   23.5551  -10.4171 C   0  0  0  0  0  0
  -20.5656   25.2295   -7.5082 C   0  0  0  0  0  0
  -21.8480   23.8160   -9.0133 C   0  0  0  0  0  0
  -21.9347   22.8426   -8.0000 C   0  0  0  0  0  0
  -20.6522   24.2579   -6.5012 C   0  0  0  0  0  0
  -21.1583   25.0103   -8.7525 C   0  0  0  0  0  0
  -21.3462   23.0653   -6.7533 C   0  0  0  0  0  0
  -19.9199   24.4534   -5.2018 C   0  0  0  0  0  0
  -17.8032   23.3247   -5.8552 C   0  0  0  0  0  0
  -18.4314   24.4230   -5.4220 C   0  0  0  0  0  0
  1  4  2  0  0  0
  1  9  1  0  0  0
  2  5  2  0  0  0
  2  9  1  0  0  0
  3 16  1  0  0  0
  3  6  1  0  0  0
  3  8  2  0  0  0
  4  8  1  0  0  0
  5  7  1  0  0  0
  5 15  1  0  0  0
  6  7  2  0  0  0
  6  9  1  0  0  0
  7  9  1  0  0  0
 10 13  2  0  0  0
 10 14  1  0  0  0
 11 14  2  0  0  0
 11 15  1  0  0  0
 12 13  1  0  0  0
 12 15  2  0  0  0
 16 18  1  0  0  0
 17 20  2  0  0  0
 17 21  1  0  0  0
 18 19  1  0  0  0
 18 21  2  0  0  0
 19 22  2  0  0  0
 20 23  1  0  0  0
 20 22  1  0  0  0
 23 25  1  0  0  0
 24 25  2  0  0  0
M  END
> <s_m_entry_id>
803

> <s_m_entry_name>
10-myco-2_47_lig_gen_fit_add_gna.sdf.3

> <s_m_Source_Path>
C:\Users\maila\Downloads\mgr\myco-analysis

> <s_m_Source_File>
myco-10-var2-wzakresie.mae

> <i_m_Source_File_Index>
59

> <s_user_SMILES>
C=CCc1ccc(cc1)CC(=CC=C2)C3=C(C234)C(=C4)c5cccnn5

> <minimizedAffinity>
-8.95325

> <minimizedRMSD>
0.24651

> <CNNscore>
0.9248386025

> <CNNaffinity>
6.9080657959

> <CNN_VS>
6.3888459206

> <CNNaffinity_variance>
0.0950801075

$$$$
C1CC[C@@H](O2)[C@]12NCc3ccc(cc3)N[C@H](C=CC4)C(C=45)=CC(=C5)c6cc[nH]n6
                    3D
 Schrodinger Suite 2021-1.
 32 37  0  0  1  0            999 V2000
  -22.6841   23.3120  -11.1475 N   0  0  0  0  0  0
  -22.3832   23.9655  -11.9069 H   0  0  0  0  0  0
  -22.8786   18.6304  -11.9527 C   0  0  0  0  0  0
  -23.6490   22.2819  -11.5290 C   0  0  1  0  0  0
  -25.4528   20.9602  -10.3840 C   0  0  0  0  0  0
  -21.7445   19.1867  -12.3815 C   0  0  0  0  0  0
  -23.7253   19.7208  -11.5222 C   0  0  0  0  0  0
  -23.0046   20.9477  -11.7556 C   0  0  0  0  0  0
  -24.8948   19.6879  -10.8938 C   0  0  0  0  0  0
  -21.8376   20.6545  -12.2995 C   0  0  0  0  0  0
  -24.8221   22.1364  -10.5691 C   0  0  0  0  0  0
  -18.9772   16.9089  -12.5257 C   0  0  0  0  0  0
  -20.3379   17.0850  -12.5505 C   0  0  0  0  0  0
  -18.3775   18.1011  -12.5943 N   0  0  0  0  0  0
  -20.4943   18.4576  -12.6017 C   0  0  0  0  0  0
  -19.2884   19.0552  -12.6252 N   0  0  0  0  0  0
  -17.3520   18.2552  -12.5426 H   0  0  0  0  0  0
  -22.2385   23.6040   -9.8199 C   0  0  0  0  0  0
  -21.3061   24.2517   -7.2577 C   0  0  0  0  0  0
  -21.7715   24.8950   -9.5414 C   0  0  0  0  0  0
  -22.2234   22.6280   -8.8119 C   0  0  0  0  0  0
  -21.3173   25.2201   -8.2683 C   0  0  0  0  0  0
  -21.7477   22.9490   -7.5390 C   0  0  0  0  0  0
  -20.7111   24.5797   -5.9171 C   0  0  0  0  0  0
  -19.8071   23.5186   -5.4626 N   0  0  1  0  0  0
  -20.2214   22.5940   -5.7245 H   0  0  0  0  0  0
  -17.9928   22.6695   -7.1528 C   0  0  0  0  0  0
  -16.1611   23.0889   -5.5862 C   0  0  0  0  0  0
  -16.4780   22.5926   -6.9958 C   0  0  0  0  0  0
  -17.8151   24.8638   -5.9241 O   0  0  0  0  0  0
  -17.4013   23.8069   -5.0834 C   0  0  1  0  0  0
  -18.4742   23.6249   -6.0678 C   0  0  1  0  0  0
  1 18  1  0  0  0
  1  4  1  0  0  0
  1  2  1  0  0  0
  3  6  2  0  0  0
  3  7  1  0  0  0
  4  8  1  0  0  0
  4 11  1  0  0  0
  5  9  1  0  0  0
  5 11  2  0  0  0
  6 15  1  0  0  0
  6 10  1  0  0  0
  7  8  1  0  0  0
  7  9  2  0  0  0
  8 10  2  0  0  0
 12 13  2  0  0  0
 12 14  1  0  0  0
 13 15  1  0  0  0
 14 16  1  0  0  0
 14 17  1  0  0  0
 15 16  2  0  0  0
 18 20  2  0  0  0
 18 21  1  0  0  0
 19 22  2  0  0  0
 19 24  1  0  0  0
 19 23  1  0  0  0
 20 22  1  0  0  0
 21 23  2  0  0  0
 24 25  1  0  0  0
 25 32  1  0  0  0
 25 26  1  0  0  0
 27 29  1  0  0  0
 27 32  1  0  0  0
 28 29  1  0  0  0
 28 31  1  0  0  0
 30 31  1  0  0  0
 30 32  1  0  0  0
 31 32  1  0  0  0
M  END
> <s_m_entry_id>
804

> <s_m_entry_name>
10-myco-2_47_lig_gen_fit_add_gna.sdf.5

> <s_m_Source_Path>
C:\Users\maila\Downloads\mgr\myco-analysis

> <s_m_Source_File>
myco-10-var2-wzakresie.mae

> <i_m_Source_File_Index>
60

> <s_user_SMILES>
C1CC[C@@H](O2)[C@]12NCc3ccc(cc3)N[C@H](C=CC4)C(C=45)=CC(=C5)c6cc[nH]n6

> <minimizedAffinity>
-10.13302

> <minimizedRMSD>
0.65456

> <CNNscore>
0.987000823

> <CNNaffinity>
7.3181099892

> <CNN_VS>
7.2229804993

> <CNNaffinity_variance>
0.0679595843

$$$$
CCCN(C)c(cc1)ccc1CC2C=C3C4=C(C5=[C]234)c6c5nnc(c6)N
                    3D
 Schrodinger Suite 2021-1.
 28 33  0  0  1  0            999 V2000
  -22.5169   18.2984  -12.9999 C   0  0  0  0  0  0
  -18.8337   17.5550  -12.3962 C   0  0  0  0  0  0
  -24.1084   20.7232  -11.1870 C   0  0  0  0  0  0
  -21.1175   18.0357  -12.5141 C   0  0  0  0  0  0
  -23.0817   18.4035  -11.8515 C   0  0  0  0  0  0
  -23.0050   19.5875  -11.1413 C   0  0  0  0  0  0
  -19.5164   19.8407  -12.4539 N   0  0  0  0  0  0
  -24.2742   18.9908  -11.1446 C   0  0  0  0  0  0
  -25.3047   19.7468  -11.2123 C   0  0  0  0  0  0
  -18.5545   18.9087  -12.3941 N   0  0  0  0  0  0
  -20.7700   19.3902  -12.4963 C   0  0  0  0  0  0
  -20.1580   17.0704  -12.4895 C   0  0  0  0  0  0
  -17.7795   16.6263  -12.3706 N   0  0  0  0  0  0
  -22.2053   19.7025  -12.5475 C   0  0  0  0  0  0
  -18.0368   15.6249  -12.5011 H   0  0  0  0  0  0
  -16.7937   16.9455  -12.2409 H   0  0  0  0  0  0
  -24.1933   21.5262   -9.8879 C   0  0  0  0  0  0
  -20.8302   23.6216   -8.2026 C   0  0  0  0  0  0
  -22.9189   22.1283   -9.3639 C   0  0  0  0  0  0
  -21.1058   23.7330   -9.5770 C   0  0  0  0  0  0
  -22.1420   22.9877  -10.1559 C   0  0  0  0  0  0
  -21.6117   22.7661   -7.4161 C   0  0  0  0  0  0
  -22.6384   22.0215   -7.9916 C   0  0  0  0  0  0
  -19.4765   24.2054   -6.1735 C   0  0  0  0  0  0
  -19.7837   24.3998   -7.5942 N   0  0  0  0  0  0
  -19.1095   25.4541   -8.3627 C   0  0  0  0  0  0
  -17.5889   25.3591   -8.2065 C   0  0  0  0  0  0
  -16.8728   26.2896   -9.1805 C   0  0  0  0  0  0
  1  4  1  0  0  0
  1  5  2  0  0  0
  1 14  1  0  0  0
  2 10  2  0  0  0
  2 12  1  0  0  0
  2 13  1  0  0  0
  3 17  1  0  0  0
  3  6  1  0  0  0
  3  9  1  0  0  0
  4 11  1  0  0  0
  4 12  2  0  0  0
  5  6  1  0  0  0
  5  8  1  0  0  0
  6  8  1  0  0  0
  6 14  2  0  0  0
  7 10  1  0  0  0
  7 11  2  0  0  0
  8  9  2  0  0  0
 11 14  1  0  0  0
 13 15  1  0  0  0
 13 16  1  0  0  0
 17 19  1  0  0  0
 18 20  2  0  0  0
 18 25  1  0  0  0
 18 22  1  0  0  0
 19 21  2  0  0  0
 19 23  1  0  0  0
 20 21  1  0  0  0
 22 23  2  0  0  0
 24 25  1  0  0  0
 25 26  1  0  0  0
 26 27  1  0  0  0
 27 28  1  0  0  0
M  END
> <s_m_entry_id>
805

> <s_m_entry_name>
10-myco-2_47_lig_gen_fit_add_gna.sdf.6

> <s_m_Source_Path>
C:\Users\maila\Downloads\mgr\myco-analysis

> <s_m_Source_File>
myco-10-var2-wzakresie.mae

> <i_m_Source_File_Index>
61

> <s_user_SMILES>
CCCN(C)c(cc1)ccc1CC2C=C3C4=C(C5=[C]234)c6c5nnc(c6)N

> <minimizedAffinity>
-9.28896

> <minimizedRMSD>
1.26003

> <CNNscore>
0.9672902822

> <CNNaffinity>
7.1207380295

> <CNN_VS>
6.8878207207

> <CNNaffinity_variance>
0.0569717884

$$$$
CCCCC(=C1)CC=C1CC=2CC(C23)=C(N)C=C3C4=CC(=N4)N
                    3D
 Schrodinger Suite 2021-1.
 27 30  0  0  1  0            999 V2000
  -23.1081   19.7378  -11.8996 C   0  0  0  0  0  0
  -25.1619   19.4324  -10.7822 C   0  0  0  0  0  0
  -23.5723   22.2892  -10.9914 C   0  0  0  0  0  0
  -24.8499   20.7008  -10.6677 C   0  0  0  0  0  0
  -24.0583   18.8247  -11.5944 C   0  0  0  0  0  0
  -24.8388   22.0823  -10.2970 C   0  0  0  0  0  0
  -23.5964   20.9645  -11.3236 C   0  0  0  0  0  0
  -26.1091   18.7255   -9.9884 N   0  0  0  0  0  0
  -26.6132   19.1954   -9.2081 H   0  0  0  0  0  0
  -26.3194   17.7238  -10.1835 H   0  0  0  0  0  0
  -21.7305   19.4088  -12.2568 C   0  0  0  0  0  0
  -19.8918   18.8736  -12.5901 C   0  0  0  0  0  0
  -20.9954   18.1709  -12.4365 C   0  0  0  0  0  0
  -18.5248   18.5593  -12.8304 N   0  0  0  0  0  0
  -20.6388   20.0809  -12.4288 N   0  0  0  0  0  0
  -18.2183   17.5647  -12.9072 H   0  0  0  0  0  0
  -17.8325   19.3263  -12.9635 H   0  0  0  0  0  0
  -22.6598   23.4262  -11.2970 C   0  0  0  0  0  0
  -21.4698   25.2387  -10.0663 C   0  0  0  0  0  0
  -21.5734   24.4232   -7.9082 C   0  0  0  0  0  0
  -22.1914   24.1277  -10.0590 C   0  0  0  0  0  0
  -21.0004   25.5639   -8.6887 C   0  0  0  0  0  0
  -22.2418   23.6015   -8.7039 C   0  0  0  0  0  0
  -21.3684   24.2006   -6.4357 C   0  0  0  0  0  0
  -19.8851   24.0314   -6.0751 C   0  0  0  0  0  0
  -19.3038   22.7138   -6.6069 C   0  0  0  0  0  0
  -18.1628   22.9635   -7.5874 C   0  0  0  0  0  0
  1 11  1  0  0  0
  1  5  2  0  0  0
  1  7  1  0  0  0
  2  4  2  0  0  0
  2  5  1  0  0  0
  2  8  1  0  0  0
  3  6  1  0  0  0
  3  7  2  0  0  0
  3 18  1  0  0  0
  4  6  1  0  0  0
  4  7  1  0  0  0
  8  9  1  0  0  0
  8 10  1  0  0  0
 11 13  2  0  0  0
 11 15  1  0  0  0
 12 13  1  0  0  0
 12 14  1  0  0  0
 12 15  2  0  0  0
 14 16  1  0  0  0
 14 17  1  0  0  0
 18 21  1  0  0  0
 19 21  2  0  0  0
 19 22  1  0  0  0
 20 22  1  0  0  0
 20 23  2  0  0  0
 20 24  1  0  0  0
 21 23  1  0  0  0
 24 25  1  0  0  0
 25 26  1  0  0  0
 26 27  1  0  0  0
M  END
> <s_m_entry_id>
806

> <s_m_entry_name>
10-myco-2_47_lig_gen_fit_add_gna.sdf.9

> <s_m_Source_Path>
C:\Users\maila\Downloads\mgr\myco-analysis

> <s_m_Source_File>
myco-10-var2-wzakresie.mae

> <i_m_Source_File_Index>
62

> <s_user_SMILES>
CCCCC(=C1)CC=C1CC=2CC(C23)=C(N)C=C3C4=CC(=N4)N

> <minimizedAffinity>
-8.54256

> <minimizedRMSD>
0.63945

> <CNNscore>
0.6408512592

> <CNNaffinity>
6.4728531837

> <CNN_VS>
4.1481361389

> <CNNaffinity_variance>
0.1859120131

$$$$
CC[C@@H](C)c1ccc(c(c12)C2)Cc(ncc3c4c35)c5cc(c4)C6=CC=N6
                    3D
 Schrodinger Suite 2021-1.
 26 31  0  0  1  0            999 V2000
  -23.0713   18.8444  -12.1224 C   0  0  0  0  0  0
  -25.4104   21.6849  -11.1803 C   0  0  0  0  0  0
  -21.8026   19.5413  -12.2718 C   0  0  0  0  0  0
  -24.7557   20.5384  -10.8703 C   0  0  0  0  0  0
  -21.6001   20.8903  -11.7031 C   0  0  0  0  0  0
  -22.5106   21.4562  -10.7299 C   0  0  0  0  0  0
  -23.8728   19.4892  -11.2170 C   0  0  0  0  0  0
  -24.5642   22.7954  -11.1771 N   0  0  0  0  0  0
  -23.4636   20.5648  -10.5262 C   0  0  0  0  0  0
  -23.1634   22.7221  -10.9851 C   0  0  0  0  0  0
  -18.9422   17.8210  -12.9687 C   0  0  0  0  0  0
  -20.6142   18.7700  -12.6601 C   0  0  0  0  0  0
  -19.2260   19.0749  -12.8177 N   0  0  0  0  0  0
  -20.3461   17.4868  -12.8264 C   0  0  0  0  0  0
  -22.3729   23.9909  -10.8309 C   0  0  0  0  0  0
  -20.4260   25.4055   -7.7535 C   0  0  0  0  0  0
  -20.5832   24.6052   -6.6595 C   0  0  0  0  0  0
  -21.4748   23.5160   -6.9727 C   0  0  0  0  0  0
  -21.0365   25.2098   -9.0651 C   0  0  0  0  0  0
  -22.1028   23.3269   -8.2808 C   0  0  0  0  0  0
  -20.1842   26.2920   -8.8097 C   0  0  0  0  0  0
  -21.8711   24.1936   -9.4181 C   0  0  0  0  0  0
  -20.7088   24.8194   -4.1470 C   0  0  0  0  0  0
  -19.7877   24.6943   -5.3704 C   0  0  2  0  0  0
  -19.0525   27.0816   -4.6665 C   0  0  0  0  0  0
  -18.6792   25.7781   -5.3790 C   0  0  0  0  0  0
  1  3  2  0  0  0
  1  7  1  0  0  0
  2  4  2  0  0  0
  2  8  1  0  0  0
  3  5  1  0  0  0
  3 12  1  0  0  0
  4  7  1  0  0  0
  4  9  1  0  0  0
  5  6  2  0  0  0
  6  9  1  0  0  0
  6 10  1  0  0  0
  7  9  2  0  0  0
  8 10  2  0  0  0
 10 15  1  0  0  0
 11 13  2  0  0  0
 11 14  1  0  0  0
 12 13  1  0  0  0
 12 14  2  0  0  0
 15 22  1  0  0  0
 16 17  2  0  0  0
 16 19  1  0  0  0
 16 21  1  0  0  0
 17 18  1  0  0  0
 17 24  1  0  0  0
 18 20  2  0  0  0
 19 21  1  0  0  0
 19 22  2  0  0  0
 20 22  1  0  0  0
 23 24  1  0  0  0
 24 26  1  0  0  0
 25 26  1  0  0  0
M  END
> <s_m_entry_id>
807

> <s_m_entry_name>
10-myco-2_47_lig_gen_fit_add_gna.sdf.10

> <s_m_Source_Path>
C:\Users\maila\Downloads\mgr\myco-analysis

> <s_m_Source_File>
myco-10-var2-wzakresie.mae

> <i_m_Source_File_Index>
63

> <s_user_SMILES>
CC[C@@H](C)c1ccc(c(c12)C2)Cc(ncc3c4c35)c5cc(c4)C6=CC=N6

> <minimizedAffinity>
-8.3638

> <minimizedRMSD>
0.43811

> <CNNscore>
0.8165208101

> <CNNaffinity>
6.5383987427

> <CNN_VS>
5.3387384415

> <CNNaffinity_variance>
0.1280779541

$$$$
C1NCCN1Cc(cc2)ccc2CC3CC=C(C=34)C=C4c5c(O)cc(N)cc5
                    3D
 Schrodinger Suite 2021-1.
 32 36  0  0  1  0            999 V2000
  -24.8520  -19.4054   11.1047 C   0  0  0  0  0  0
  -23.9120  -21.4140   10.9357 C   0  0  0  0  0  0
  -23.0211  -18.9678   11.7759 C   0  0  0  0  0  0
  -23.7207  -20.1628   11.2801 C   0  0  0  0  0  0
  -24.1524  -18.2422   11.6106 C   0  0  0  0  0  0
  -25.8738  -20.0632   10.6240 C   0  0  0  0  0  0
  -25.3725  -21.4985   10.4819 C   0  0  0  0  0  0
  -21.3209  -17.2652   12.4230 C   0  0  0  0  0  0
  -21.6282  -18.6005   12.1461 C   0  0  0  0  0  0
  -19.2447  -19.0894   12.1960 C   0  0  0  0  0  0
  -20.5731  -19.5201   12.0560 C   0  0  0  0  0  0
  -19.9970  -16.8375   12.5653 C   0  0  0  0  0  0
  -22.3407  -16.3531   12.5557 O   0  0  0  0  0  0
  -17.6013  -17.2967   12.5445 N   0  0  0  0  0  0
  -18.9530  -17.7461   12.4424 C   0  0  0  0  0  0
  -22.1282  -15.4235   12.8352 H   0  0  0  0  0  0
  -17.3839  -16.3129   12.8153 H   0  0  0  0  0  0
  -16.8108  -17.9247   12.2930 H   0  0  0  0  0  0
  -22.9487  -22.5422   11.0970 C   0  0  0  0  0  0
  -21.0308  -23.8188    7.4553 C   0  0  0  0  0  0
  -20.5964  -24.2905    8.7010 C   0  0  0  0  0  0
  -22.8489  -22.6394    8.5477 C   0  0  0  0  0  0
  -22.3988  -23.0872    9.8041 C   0  0  0  0  0  0
  -22.1751  -23.0104    7.3838 C   0  0  0  0  0  0
  -21.2750  -23.9267    9.8651 C   0  0  0  0  0  0
  -20.1873  -24.0462    6.2302 C   0  0  0  0  0  0
  -18.2969  -22.4928    6.4478 C   0  0  0  0  0  0
  -16.8540  -22.5638    5.9917 C   0  0  0  0  0  0
  -16.6175  -23.9238    5.5179 N   0  0  1  0  0  0
  -17.8986  -24.6213    5.6230 C   0  0  0  0  0  0
  -18.7543  -23.8779    6.5509 N   0  0  2  0  0  0
  -16.3284  -23.8919    4.5115 H   0  0  0  0  0  0
  1  4  1  0  0  0
  1  5  1  0  0  0
  1  6  2  0  0  0
  2 19  1  0  0  0
  2  4  2  0  0  0
  2  7  1  0  0  0
  3  9  1  0  0  0
  3  4  1  0  0  0
  3  5  2  0  0  0
  6  7  1  0  0  0
  8  9  2  0  0  0
  8 12  1  0  0  0
  8 13  1  0  0  0
  9 11  1  0  0  0
 10 11  2  0  0  0
 10 15  1  0  0  0
 12 15  2  0  0  0
 13 16  1  0  0  0
 14 15  1  0  0  0
 14 17  1  0  0  0
 14 18  1  0  0  0
 19 23  1  0  0  0
 20 21  2  0  0  0
 20 26  1  0  0  0
 20 24  1  0  0  0
 21 25  1  0  0  0
 22 23  1  0  0  0
 22 24  2  0  0  0
 23 25  2  0  0  0
 26 31  1  0  0  0
 27 28  1  0  0  0
 27 31  1  0  0  0
 28 29  1  0  0  0
 29 30  1  0  0  0
 29 32  1  0  0  0
 30 31  1  0  0  0
M  END
> <s_m_entry_id>
808

> <s_m_entry_name>
10-myco-2_48_lig_gen_fit_add_gna.sdf.3

> <s_m_Source_Path>
C:\Users\maila\Downloads\mgr\myco-analysis

> <s_m_Source_File>
myco-10-var2-wzakresie.mae

> <i_m_Source_File_Index>
64

> <s_user_SMILES>
C1NCCN1Cc(cc2)ccc2CC3CC=C(C=34)C=C4c5c(O)cc(N)cc5

> <minimizedAffinity>
-9.95517

> <minimizedRMSD>
0.77941

> <CNNscore>
0.8252636194

> <CNNaffinity>
6.8241415024

> <CNN_VS>
5.6317157745

> <CNNaffinity_variance>
0.0675532892

$$$$
N1C[C@H]1N[C@H](C2)[C@H]2c3cc(F)c(cc3)-c4cccc(c4=5)=C[C@H]6C(C5)=C(O)[C@@H](O)NC6=O
                    3D
 Schrodinger Suite 2021-1.
 36 41  0  0  1  0            999 V2000
  -21.8607  -18.0230   12.8423 C   0  0  1  0  0  0
  -23.1939  -18.0263   12.1494 C   0  0  0  0  0  0
  -23.5603  -21.3807   10.6598 C   0  0  0  0  0  0
  -22.9521  -20.3096   11.3889 C   0  0  0  0  0  0
  -20.9762  -19.1207   12.3269 C   0  0  0  0  0  0
  -18.9098  -17.7522   12.9057 C   0  0  1  0  0  0
  -21.6428  -20.3396   11.7662 C   0  0  0  0  0  0
  -19.6283  -18.9635   12.3251 C   0  0  0  0  0  0
  -21.1550  -16.7115   12.7060 C   0  0  0  0  0  0
  -25.6606  -20.1711   10.5756 C   0  0  0  0  0  0
  -18.8359  -19.9267   11.7488 O   0  0  0  0  0  0
  -25.0654  -19.0748   11.1783 C   0  0  0  0  0  0
  -17.8772  -17.3613   12.0400 O   0  0  0  0  0  0
  -21.7024  -15.7085   12.2077 O   0  0  0  0  0  0
  -19.8026  -16.6250   13.0996 N   0  0  0  0  0  0
  -24.9183  -21.3084   10.3135 C   0  0  0  0  0  0
  -23.7240  -19.1268   11.5962 C   0  0  0  0  0  0
  -17.8507  -19.7520   11.6163 H   0  0  0  0  0  0
  -17.2666  -16.7821   12.5671 H   0  0  0  0  0  0
  -19.4063  -15.6923   13.3229 H   0  0  0  0  0  0
  -21.5415  -24.6415    8.7305 C   0  0  0  0  0  0
  -21.6300  -24.5919   10.1308 C   0  0  0  0  0  0
  -22.7425  -22.5335    8.6089 C   0  0  0  0  0  0
  -22.1454  -23.6227    7.9736 C   0  0  0  0  0  0
  -22.2893  -23.5327   10.7631 C   0  0  0  0  0  0
  -22.7980  -22.4704   10.0130 C   0  0  0  0  0  0
  -23.2952  -21.5505    7.8528 F   0  0  0  0  0  0
  -20.8799  -25.8411    8.0895 C   0  0  1  0  0  0
  -20.3352  -25.7317    6.6619 C   0  0  0  0  0  0
  -19.3700  -25.7336    7.8405 C   0  0  1  0  0  0
  -18.7398  -24.4296    8.1130 N   0  0  2  0  0  0
  -19.3918  -23.7577    8.5816 H   0  0  0  0  0  0
  -18.2158  -23.8863    6.8481 C   0  0  1  0  0  0
  -18.6660  -22.5089    6.5460 N   0  0  2  0  0  0
  -17.2796  -22.7728    6.9853 C   0  0  0  0  0  0
  -19.1792  -22.0952    7.3564 H   0  0  0  0  0  0
  1  2  1  0  0  0
  1  5  1  0  0  0
  1  9  1  0  0  0
  2 17  2  0  0  0
  3  4  1  0  0  0
  3 26  1  0  0  0
  3 16  2  0  0  0
  4  7  2  0  0  0
  4 17  1  0  0  0
  5  7  1  0  0  0
  5  8  2  0  0  0
  6  8  1  0  0  0
  6 13  1  0  0  0
  6 15  1  0  0  0
  8 11  1  0  0  0
  9 14  2  0  0  0
  9 15  1  0  0  0
 10 12  2  0  0  0
 10 16  1  0  0  0
 11 18  1  0  0  0
 12 17  1  0  0  0
 13 19  1  0  0  0
 15 20  1  0  0  0
 21 22  2  0  0  0
 21 24  1  0  0  0
 21 28  1  0  0  0
 22 25  1  0  0  0
 23 24  2  0  0  0
 23 26  1  0  0  0
 23 27  1  0  0  0
 25 26  2  0  0  0
 28 29  1  0  0  0
 28 30  1  0  0  0
 29 30  1  0  0  0
 30 31  1  0  0  0
 31 33  1  0  0  0
 31 32  1  0  0  0
 33 34  1  0  0  0
 33 35  1  0  0  0
 34 35  1  0  0  0
 34 36  1  0  0  0
M  END
> <s_m_entry_id>
809

> <s_m_entry_name>
10-myco-2_48_lig_gen_fit_add_gna.sdf.6

> <s_m_Source_Path>
C:\Users\maila\Downloads\mgr\myco-analysis

> <s_m_Source_File>
myco-10-var2-wzakresie.mae

> <i_m_Source_File_Index>
65

> <s_user_SMILES>
N1C[C@H]1N[C@H](C2)[C@H]2c3cc(F)c(cc3)-c4cccc(c4=5)=C[C@H]6C(C5)=C(O)[C@@H](O)NC6=O

> <minimizedAffinity>
-11.65824

> <minimizedRMSD>
0.60164

> <CNNscore>
0.4996595979

> <CNNaffinity>
6.4765944481

> <CNN_VS>
3.2360925674

> <CNNaffinity_variance>
0.1171696931

$$$$
C[C@@H]1[C@H](C1)c2ccc(cc2)NC3=CC=C(C3=4)C=C(C4)c(c5)ncc(O)c5C
                    3D
 Schrodinger Suite 2021-1.
 29 33  0  0  1  0            999 V2000
  -23.9789  -21.0038   10.8014 C   0  0  0  0  0  0
  -22.2732  -20.0778   11.9112 C   0  0  0  0  0  0
  -23.8693  -22.1102    8.8285 C   0  0  0  0  0  0
  -22.9309  -22.6615    9.5882 C   0  0  0  0  0  0
  -23.5390  -19.8322   11.5439 C   0  0  0  0  0  0
  -24.5289  -21.0308    9.5913 C   0  0  0  0  0  0
  -21.8841  -21.4177   11.4413 C   0  0  0  0  0  0
  -22.9288  -21.9664   10.8553 C   0  0  0  0  0  0
  -18.9575  -18.4912   12.3700 C   0  0  0  0  0  0
  -21.2714  -19.0459   12.2464 C   0  0  0  0  0  0
  -20.5920  -16.7581   12.6330 C   0  0  0  0  0  0
  -19.9586  -19.3823   12.1735 N   0  0  0  0  0  0
  -18.2250  -16.2300   12.7913 O   0  0  0  0  0  0
  -20.9402  -15.3217   12.7475 C   0  0  0  0  0  0
  -21.6130  -17.7085   12.4663 C   0  0  0  0  0  0
  -19.2508  -17.1548   12.6025 C   0  0  0  0  0  0
  -17.2525  -16.5128   12.7958 H   0  0  0  0  0  0
  -22.0016  -23.6787    9.1898 N   0  0  0  0  0  0
  -21.9993  -24.5448    9.7747 H   0  0  0  0  0  0
  -18.4825  -22.9115    8.1758 C   0  0  0  0  0  0
  -19.5893  -23.2978    8.9397 C   0  0  0  0  0  0
  -18.6213  -22.6551    6.7954 C   0  0  0  0  0  0
  -20.9712  -23.2646    6.9621 C   0  0  0  0  0  0
  -20.8545  -23.4378    8.3503 C   0  0  0  0  0  0
  -19.8759  -22.8502    6.2034 C   0  0  0  0  0  0
  -16.3941  -21.3458    6.5526 C   0  0  1  0  0  0
  -17.4031  -20.6828    5.6168 C   0  0  0  0  0  0
  -17.4905  -22.1807    5.8990 C   0  0  2  0  0  0
  -14.9961  -21.5282    5.9600 C   0  0  0  0  0  0
  1  5  1  0  0  0
  1  6  2  0  0  0
  1  8  1  0  0  0
  2 10  1  0  0  0
  2  5  2  0  0  0
  2  7  1  0  0  0
  3  4  2  0  0  0
  3  6  1  0  0  0
  4 18  1  0  0  0
  4  8  1  0  0  0
  7  8  2  0  0  0
  9 12  2  0  0  0
  9 16  1  0  0  0
 10 12  1  0  0  0
 10 15  2  0  0  0
 11 14  1  0  0  0
 11 15  1  0  0  0
 11 16  2  0  0  0
 13 16  1  0  0  0
 13 17  1  0  0  0
 18 24  1  0  0  0
 18 19  1  0  0  0
 20 21  2  0  0  0
 20 22  1  0  0  0
 21 24  1  0  0  0
 22 28  1  0  0  0
 22 25  2  0  0  0
 23 24  2  0  0  0
 23 25  1  0  0  0
 26 27  1  0  0  0
 26 28  1  0  0  0
 26 29  1  0  0  0
 27 28  1  0  0  0
M  END
> <s_m_entry_id>
810

> <s_m_entry_name>
10-myco-2_48_lig_gen_fit_add_gna.sdf.7

> <s_m_Source_Path>
C:\Users\maila\Downloads\mgr\myco-analysis

> <s_m_Source_File>
myco-10-var2-wzakresie.mae

> <i_m_Source_File_Index>
66

> <s_user_SMILES>
C[C@@H]1[C@H](C1)c2ccc(cc2)NC3=CC=C(C3=4)C=C(C4)c(c5)ncc(O)c5C

> <minimizedAffinity>
-10.22929

> <minimizedRMSD>
1.43702

> <CNNscore>
0.8849321008

> <CNNaffinity>
6.9977478981

> <CNN_VS>
6.1925315857

> <CNNaffinity_variance>
0.0325625762

$$$$
CCC1(CC1)c(cc2)ccc2CC=3CC=C4C=C(C=5C34)C=C(N5)CN
                    3D
 Schrodinger Suite 2021-1.
 27 31  0  0  1  0            999 V2000
  -23.5657  -18.1255   12.0428 C   0  0  0  0  0  0
  -21.1195  -18.0587   12.6840 C   0  0  0  0  0  0
  -22.2135  -20.0064   12.1539 C   0  0  0  0  0  0
  -23.9873  -21.4073   10.8133 C   0  0  0  0  0  0
  -20.2757  -19.0491   12.3608 C   0  0  0  0  0  0
  -23.3739  -20.3740   11.3602 C   0  0  0  0  0  0
  -22.4315  -18.6375   12.5307 C   0  0  0  0  0  0
  -20.9645  -20.2452   11.9271 N   0  0  0  0  0  0
  -24.2029  -19.2355   11.3412 C   0  0  0  0  0  0
  -25.3563  -20.9365   10.3554 C   0  0  0  0  0  0
  -25.3557  -19.4777   10.7572 C   0  0  0  0  0  0
  -18.2487  -18.0051   13.2413 N   0  0  0  0  0  0
  -18.7989  -18.8471   12.1850 C   0  0  0  0  0  0
  -17.2069  -18.0104   13.1464 H   0  0  0  0  0  0
  -18.5531  -17.0182   13.0738 H   0  0  0  0  0  0
  -23.5376  -22.8347   10.8608 C   0  0  0  0  0  0
  -21.5755  -24.1438   10.0161 C   0  0  0  0  0  0
  -22.6009  -23.2271    9.7402 C   0  0  0  0  0  0
  -20.8277  -24.0569    7.7060 C   0  0  0  0  0  0
  -21.8890  -23.1905    7.4082 C   0  0  0  0  0  0
  -20.6955  -24.5496    9.0117 C   0  0  0  0  0  0
  -22.7792  -22.7910    8.4113 C   0  0  0  0  0  0
  -20.2689  -25.0401    5.4021 C   0  0  0  0  0  0
  -19.4240  -25.8105    6.4044 C   0  0  0  0  0  0
  -19.7718  -24.3449    6.6638 C   0  0  0  0  0  0
  -18.1278  -22.7966    7.7888 C   0  0  0  0  0  0
  -18.6490  -23.3135    6.4565 C   0  0  0  0  0  0
  1  7  2  0  0  0
  1  9  1  0  0  0
  2  5  2  0  0  0
  2  7  1  0  0  0
  3  6  1  0  0  0
  3  7  1  0  0  0
  3  8  2  0  0  0
  4 16  1  0  0  0
  4  6  2  0  0  0
  4 10  1  0  0  0
  5  8  1  0  0  0
  5 13  1  0  0  0
  6  9  1  0  0  0
  9 11  2  0  0  0
 10 11  1  0  0  0
 12 13  1  0  0  0
 12 14  1  0  0  0
 12 15  1  0  0  0
 16 18  1  0  0  0
 17 18  2  0  0  0
 17 21  1  0  0  0
 18 22  1  0  0  0
 19 20  1  0  0  0
 19 21  2  0  0  0
 19 25  1  0  0  0
 20 22  2  0  0  0
 23 24  1  0  0  0
 23 25  1  0  0  0
 24 25  1  0  0  0
 25 27  1  0  0  0
 26 27  1  0  0  0
M  END
> <s_m_entry_id>
811

> <s_m_entry_name>
10-myco-2_48_lig_gen_fit_add_gna.sdf.8

> <s_m_Source_Path>
C:\Users\maila\Downloads\mgr\myco-analysis

> <s_m_Source_File>
myco-10-var2-wzakresie.mae

> <i_m_Source_File_Index>
67

> <s_user_SMILES>
CCC1(CC1)c(cc2)ccc2CC=3CC=C4C=C(C=5C34)C=C(N5)CN

> <minimizedAffinity>
-9.12274

> <minimizedRMSD>
0.57433

> <CNNscore>
0.6575298309

> <CNNaffinity>
6.5724248886

> <CNN_VS>
4.3215656281

> <CNNaffinity_variance>
0.2153651416

$$$$
N#CC1=C(N2)C2=N[C@@H](C1=3)C3c(ccc4)cc4Cc(cc5)ccc5CC6=CC=CC6
                    3D
 Schrodinger Suite 2021-1.
 30 35  0  0  1  0            999 V2000
  -23.4868  -19.5016   11.5268 C   0  0  0  0  0  0
  -23.8647  -21.7791   10.7845 C   0  0  0  0  0  0
  -25.5876  -20.0904   10.4896 C   0  0  0  0  0  0
  -23.0402  -20.8147   11.3577 C   0  0  0  0  0  0
  -25.1459  -21.4121   10.3391 C   0  0  0  0  0  0
  -24.7661  -19.1390   11.1047 C   0  0  0  0  0  0
  -22.6324  -18.6290   12.3148 C   0  0  0  0  0  0
  -19.9607  -16.7129   12.0718 C   0  0  0  0  0  0
  -19.5472  -18.0634   12.2678 C   0  0  0  0  0  0
  -20.1985  -19.1047   12.6781 N   0  0  0  0  0  0
  -21.9234  -17.4184   12.7477 C   0  0  0  0  0  0
  -21.5670  -18.7031   13.2144 C   0  0  1  0  0  0
  -18.6141  -17.1005   11.7892 N   0  0  0  0  0  0
  -21.1635  -16.1973   12.3210 C   0  0  0  0  0  0
  -17.6438  -16.8617   11.4917 H   0  0  0  0  0  0
  -21.3132  -14.8911   12.8765 C   0  0  0  0  0  0
  -21.4239  -13.8275   13.3205 N   0  0  0  0  0  0
  -23.3825  -23.2015   10.7270 C   0  0  0  0  0  0
  -22.6903  -22.9044    8.2906 C   0  0  0  0  0  0
  -20.7695  -24.0849    7.3847 C   0  0  0  0  0  0
  -21.3833  -24.3589    9.7187 C   0  0  0  0  0  0
  -22.4590  -23.4685    9.5588 C   0  0  0  0  0  0
  -21.8450  -23.1998    7.2172 C   0  0  0  0  0  0
  -20.5406  -24.6566    8.6448 C   0  0  0  0  0  0
  -19.8432  -24.3886    6.2366 C   0  0  0  0  0  0
  -18.4755  -23.8017    6.4536 C   0  0  0  0  0  0
  -17.3807  -24.2447    5.8524 C   0  0  0  0  0  0
  -16.7083  -22.4114    6.9894 C   0  0  0  0  0  0
  -18.1721  -22.5602    7.2343 C   0  0  0  0  0  0
  -16.2707  -23.3771    6.1992 C   0  0  0  0  0  0
  1  7  1  0  0  0
  1  4  2  0  0  0
  1  6  1  0  0  0
  2 18  1  0  0  0
  2  4  1  0  0  0
  2  5  2  0  0  0
  3  5  1  0  0  0
  3  6  2  0  0  0
  7 11  2  0  0  0
  7 12  1  0  0  0
  8  9  1  0  0  0
  8 13  1  0  0  0
  8 14  2  0  0  0
  9 10  2  0  0  0
  9 13  1  0  0  0
 10 12  1  0  0  0
 11 12  1  0  0  0
 11 14  1  0  0  0
 13 15  1  0  0  0
 14 16  1  0  0  0
 16 17  3  0  0  0
 18 22  1  0  0  0
 19 22  2  0  0  0
 19 23  1  0  0  0
 20 25  1  0  0  0
 20 23  2  0  0  0
 20 24  1  0  0  0
 21 22  1  0  0  0
 21 24  2  0  0  0
 25 26  1  0  0  0
 26 27  2  0  0  0
 26 29  1  0  0  0
 27 30  1  0  0  0
 28 29  1  0  0  0
 28 30  2  0  0  0
M  END
> <s_m_entry_id>
812

> <s_m_entry_name>
10-myco-2_48_lig_gen_fit_add_gna.sdf.9

> <s_m_Source_Path>
C:\Users\maila\Downloads\mgr\myco-analysis

> <s_m_Source_File>
myco-10-var2-wzakresie.mae

> <i_m_Source_File_Index>
68

> <s_user_SMILES>
N#CC1=C(N2)C2=N[C@@H](C1=3)C3c(ccc4)cc4Cc(cc5)ccc5CC6=CC=CC6

> <minimizedAffinity>
-9.90285

> <minimizedRMSD>
0.45833

> <CNNscore>
0.8279556036

> <CNNaffinity>
7.1142783165

> <CNN_VS>
5.8903064728

> <CNNaffinity_variance>
0.2461787015

$$$$
CC[C@@H](CC1)N([C@H]12)[C@]2(C)c(cc3)c(C)cc3Cn(ccc4)c(c5)c4c(=CC6)c5=C(C)C(C=67)[C@@H]7O
                    3D
 Schrodinger Suite 2021-1.
 35 41  0  0  1  0            999 V2000
  -25.7006  -19.5635   10.9129 C   0  0  0  0  0  0
  -21.8096  -20.6363   11.7548 C   0  0  0  0  0  0
  -25.3651  -20.8258   10.5992 C   0  0  0  0  0  0
  -20.0256  -16.6411   13.0336 C   0  0  0  0  0  0
  -23.4758  -19.0727   11.7663 C   0  0  0  0  0  0
  -21.2024  -19.4014   12.3907 C   0  0  0  0  0  0
  -22.3129  -17.0571   12.6537 C   0  0  0  0  0  0
  -21.2204  -16.1861   13.1816 C   0  0  0  0  0  0
  -19.4393  -17.8964   12.4482 C   0  0  3  0  0  0
  -24.7250  -18.6490   11.5455 C   0  0  0  0  0  0
  -19.8095  -19.0044   11.9318 C   0  0  0  0  0  0
  -24.0507  -21.3430   10.9061 N   0  0  0  0  0  0
  -18.0646  -17.3586   14.1590 O   0  0  0  0  0  0
  -23.0979  -20.4305   11.4860 C   0  0  0  0  0  0
  -18.6335  -16.8883   12.9774 C   0  0  2  0  0  0
  -18.6868  -19.9061   11.7478 C   0  0  0  0  0  0
  -22.2957  -18.3547   12.2565 C   0  0  0  0  0  0
  -17.1662  -17.6960   13.9068 H   0  0  0  0  0  0
  -23.8359  -22.7876   10.8878 C   0  0  0  0  0  0
  -22.9007  -23.2331    9.7888 C   0  0  0  0  0  0
  -21.1486  -24.2710    7.8148 C   0  0  0  0  0  0
  -21.0433  -24.6755    9.1655 C   0  0  0  0  0  0
  -22.1619  -23.3582    7.4639 C   0  0  0  0  0  0
  -21.9264  -24.1688   10.1229 C   0  0  0  0  0  0
  -23.0469  -22.8593    8.4398 C   0  0  0  0  0  0
  -20.0650  -25.7092    9.6247 C   0  0  0  0  0  0
  -19.0969  -27.0517    6.3357 C   0  0  1  0  0  0
  -19.0513  -27.1044    4.8173 C   0  0  0  0  0  0
  -20.6805  -25.4491    5.5577 C   0  0  1  0  0  0
  -18.7786  -24.1130    6.7474 C   0  0  0  0  0  0
  -19.7844  -25.8607    4.3829 C   0  0  0  0  0  0
  -20.2934  -26.2850    6.7216 N   0  0  2  0  0  0
  -20.1660  -24.7984    6.7815 C   0  0  1  0  0  0
  -20.4413  -28.8400    7.6323 C   0  0  0  0  0  0
  -19.1128  -28.4575    6.9755 C   0  0  0  0  0  0
  1  3  2  0  0  0
  1 10  1  0  0  0
  2  6  1  0  0  0
  2 14  2  0  0  0
  3 12  1  0  0  0
  4  8  2  0  0  0
  4  9  1  0  0  0
  4 15  1  0  0  0
  5 10  2  0  0  0
  5 14  1  0  0  0
  5 17  1  0  0  0
  6 11  2  0  0  0
  6 17  1  0  0  0
  7  8  1  0  0  0
  7 17  2  0  0  0
  9 11  1  0  0  0
  9 15  1  0  0  0
 11 16  1  0  0  0
 12 19  1  0  0  0
 12 14  1  0  0  0
 13 15  1  0  0  0
 13 18  1  0  0  0
 19 20  1  0  0  0
 20 24  2  0  0  0
 20 25  1  0  0  0
 21 22  2  0  0  0
 21 23  1  0  0  0
 21 33  1  0  0  0
 22 24  1  0  0  0
 22 26  1  0  0  0
 23 25  2  0  0  0
 27 28  1  0  0  0
 27 35  1  0  0  0
 27 32  1  0  0  0
 28 31  1  0  0  0
 29 31  1  0  0  0
 29 32  1  0  0  0
 29 33  1  0  0  0
 30 33  1  0  0  0
 32 33  1  0  0  0
 34 35  1  0  0  0
M  END
> <s_m_entry_id>
813

> <s_m_entry_name>
10-myco-2_49_lig_gen_fit_add_gna.sdf.4

> <s_m_Source_Path>
C:\Users\maila\Downloads\mgr\myco-analysis

> <s_m_Source_File>
myco-10-var2-wzakresie.mae

> <i_m_Source_File_Index>
69

> <s_user_SMILES>
CC[C@@H](CC1)N([C@H]12)[C@]2(C)c(cc3)c(C)cc3Cn(ccc4)c(c5)c4c(=CC6)c5=C(C)C(C=67)[C@@H]7O

> <minimizedAffinity>
-9.94558

> <minimizedRMSD>
0.41088

> <CNNscore>
0.5002677441

> <CNNaffinity>
6.9058852196

> <CNN_VS>
3.4547915459

> <CNNaffinity_variance>
0.0676433742

$$$$
CC[C@@H]1[C@H]([C@H]12)[C@H]2C(=CC3)C=C3CN4C(C456)=NC5=CC(=C6)[C@H]7C=CN=C7
                    3D
 Schrodinger Suite 2021-1.
 25 31  0  0  1  0            999 V2000
  -21.1751  -18.7954   12.2236 C   0  0  0  0  0  0
  -23.3164  -18.8587   12.0707 C   0  0  0  0  0  0
  -21.4687  -20.0890   11.9253 C   0  0  0  0  0  0
  -22.3896  -17.9746   12.3528 C   0  0  0  0  0  0
  -22.9258  -20.4171   12.0816 C   0  0  3  0  0  0
  -24.3194  -19.0145   10.9803 N   0  0  0  0  0  0
  -23.8242  -20.1126   11.1234 C   0  0  0  0  0  0
  -23.2592  -21.4771   11.2492 N   0  0  0  0  0  0
  -18.7487  -18.6688   12.8856 C   0  0  0  0  0  0
  -18.8350  -16.5316   13.2300 C   0  0  0  0  0  0
  -19.8050  -16.7188   12.3540 C   0  0  0  0  0  0
  -18.1917  -17.7370   13.5721 N   0  0  0  0  0  0
  -19.8335  -18.1592   11.9889 C   0  0  2  0  0  0
  -23.2146  -22.8861   10.9097 C   0  0  0  0  0  0
  -21.7424  -23.5151    7.5057 C   0  0  0  0  0  0
  -22.3999  -23.0999    9.6774 C   0  0  0  0  0  0
  -21.0922  -23.3087    9.6681 C   0  0  0  0  0  0
  -20.6842  -23.5911    8.3021 C   0  0  0  0  0  0
  -22.9640  -23.1828    8.2983 C   0  0  0  0  0  0
  -19.2685  -23.7681    7.8284 C   0  0  1  0  0  0
  -18.7190  -25.1849    7.7456 C   0  0  2  0  0  0
  -19.2051  -24.4147    6.4724 C   0  0  1  0  0  0
  -19.1238  -25.9183    6.4845 C   0  0  1  0  0  0
  -18.2914  -27.9615    5.2750 C   0  0  0  0  0  0
  -17.9420  -26.5524    5.7407 C   0  0  0  0  0  0
  1  3  2  0  0  0
  1  4  1  0  0  0
  1 13  1  0  0  0
  2  4  2  0  0  0
  2  5  1  0  0  0
  2  6  1  0  0  0
  3  5  1  0  0  0
  5  7  1  0  0  0
  5  8  1  0  0  0
  6  7  2  0  0  0
  7  8  1  0  0  0
  8 14  1  0  0  0
  9 12  2  0  0  0
  9 13  1  0  0  0
 10 11  2  0  0  0
 10 12  1  0  0  0
 11 13  1  0  0  0
 14 16  1  0  0  0
 15 18  2  0  0  0
 15 19  1  0  0  0
 16 17  2  0  0  0
 16 19  1  0  0  0
 17 18  1  0  0  0
 18 20  1  0  0  0
 20 21  1  0  0  0
 20 22  1  0  0  0
 21 22  1  0  0  0
 21 23  1  0  0  0
 22 23  1  0  0  0
 23 25  1  0  0  0
 24 25  1  0  0  0
M  END
> <s_m_entry_id>
814

> <s_m_entry_name>
10-myco-2_49_lig_gen_fit_add_gna.sdf.5

> <s_m_Source_Path>
C:\Users\maila\Downloads\mgr\myco-analysis

> <s_m_Source_File>
myco-10-var2-wzakresie.mae

> <i_m_Source_File_Index>
70

> <s_user_SMILES>
CC[C@@H]1[C@H]([C@H]12)[C@H]2C(=CC3)C=C3CN4C(C456)=NC5=CC(=C6)[C@H]7C=CN=C7

> <minimizedAffinity>
-8.29472

> <minimizedRMSD>
0.91014

> <CNNscore>
0.391912818

> <CNNaffinity>
6.1065120697

> <CNN_VS>
2.3932204247

> <CNNaffinity_variance>
0.1043552384

$$$$
C1CC1COCc(cc2)cc(C)c2C[C@@H]3C=C(C3=4)C=CC4c5c(O)c(N)c(O)cc5
                    3D
 Schrodinger Suite 2021-1.
 34 38  0  0  1  0            999 V2000
  -24.8519  -21.3698   10.7848 C   0  0  0  0  0  0
  -24.6174  -22.6982   10.9252 C   0  0  0  0  0  0
  -23.4648  -21.0123   10.8643 C   0  0  0  0  0  0
  -23.3780  -19.7394   11.2257 C   0  0  0  0  0  0
  -24.8126  -19.2446   11.1556 C   0  0  0  0  0  0
  -23.2291  -22.4258   10.5622 C   0  0  2  0  0  0
  -25.6940  -20.2305   10.8963 C   0  0  0  0  0  0
  -22.5382  -17.7197   12.3909 C   0  0  0  0  0  0
  -20.2234  -17.3551   12.9613 C   0  0  0  0  0  0
  -20.5771  -20.7877   11.6147 O   0  0  0  0  0  0
  -19.9162  -18.6688   12.5309 C   0  0  0  0  0  0
  -21.5350  -16.9082   12.8975 C   0  0  0  0  0  0
  -22.2713  -19.0240   11.9378 C   0  0  0  0  0  0
  -20.9403  -19.5101   12.0447 C   0  0  0  0  0  0
  -19.2726  -16.4686   13.4709 O   0  0  0  0  0  0
  -18.5714  -19.1532   12.4902 N   0  0  0  0  0  0
  -21.1733  -21.4029   11.0926 H   0  0  0  0  0  0
  -18.2994  -16.6971   13.6337 H   0  0  0  0  0  0
  -17.7628  -18.5149   12.5955 H   0  0  0  0  0  0
  -17.7237  -18.5398   12.5681 H   0  0  0  0  0  0
  -23.1027  -22.8923    9.0722 C   0  0  0  0  0  0
  -20.5002  -24.0487    6.5379 C   0  0  0  0  0  0
  -19.7909  -24.9733    7.3032 C   0  0  0  0  0  0
  -21.0094  -24.2444    9.2778 C   0  0  0  0  0  0
  -22.3874  -22.4661    6.1809 C   0  0  0  0  0  0
  -20.0659  -25.0813    8.6706 C   0  0  0  0  0  0
  -21.5199  -23.2721    7.1092 C   0  0  0  0  0  0
  -21.7829  -23.3588    8.5036 C   0  0  0  0  0  0
  -18.8637  -25.9401    6.6211 C   0  0  0  0  0  0
  -19.6353  -27.0051    6.0868 O   0  0  0  0  0  0
  -19.3154  -28.2440    6.6871 C   0  0  0  0  0  0
  -20.5347  -28.8275    7.4187 C   0  0  0  0  0  0
  -20.4915  -28.7811    8.9417 C   0  0  0  0  0  0
  -20.2352  -30.0921    8.2139 C   0  0  0  0  0  0
  1  2  2  0  0  0
  1  3  1  0  0  0
  1  7  1  0  0  0
  2  6  1  0  0  0
  3  4  2  0  0  0
  3  6  1  0  0  0
  4  5  1  0  0  0
  4 13  1  0  0  0
  5  7  2  0  0  0
  6 21  1  0  0  0
  8 12  2  0  0  0
  8 13  1  0  0  0
  9 11  2  0  0  0
  9 12  1  0  0  0
  9 15  1  0  0  0
 10 14  1  0  0  0
 10 17  1  0  0  0
 11 14  1  0  0  0
 11 16  1  0  0  0
 13 14  2  0  0  0
 15 18  1  0  0  0
 16 19  1  0  0  0
 16 20  1  0  0  0
 21 28  1  0  0  0
 22 23  2  0  0  0
 22 27  1  0  0  0
 23 26  1  0  0  0
 23 29  1  0  0  0
 24 26  2  0  0  0
 24 28  1  0  0  0
 25 27  1  0  0  0
 27 28  2  0  0  0
 29 30  1  0  0  0
 30 31  1  0  0  0
 31 32  1  0  0  0
 32 33  1  0  0  0
 32 34  1  0  0  0
 33 34  1  0  0  0
M  END
> <s_m_entry_id>
815

> <s_m_entry_name>
10-myco-2_49_lig_gen_fit_add_gna.sdf.6

> <s_m_Source_Path>
C:\Users\maila\Downloads\mgr\myco-analysis

> <s_m_Source_File>
myco-10-var2-wzakresie.mae

> <i_m_Source_File_Index>
71

> <s_user_SMILES>
C1CC1COCc(cc2)cc(C)c2C[C@@H]3C=C(C3=4)C=CC4c5c(O)c(N)c(O)cc5

> <minimizedAffinity>
-8.42499

> <minimizedRMSD>
1.1402

> <CNNscore>
0.8251171708

> <CNNaffinity>
6.9194688797

> <CNN_VS>
5.7093725204

> <CNNaffinity_variance>
0.0983713716

$$$$
C1=NC(=O)C(C#N)=C(C=C2)C1=C[C@@H](C2=3)C(=CC3)c(ccc4)cc4CN5CCC5
                    3D
 Schrodinger Suite 2021-1.
 28 32  0  0  1  0            999 V2000
  -21.3936  -20.5519   11.6473 C   0  0  0  0  0  0
  -23.2509  -21.8277   10.5373 C   0  0  0  0  0  0
  -20.4917  -17.0553   12.6779 C   0  0  0  0  0  0
  -22.8090  -17.8241   12.5761 C   0  0  0  0  0  0
  -24.2172  -21.3243    9.7837 C   0  0  0  0  0  0
  -20.7477  -19.4134   12.0113 C   0  0  0  0  0  0
  -19.2650  -19.4818   11.9464 C   0  0  0  0  0  0
  -18.5000  -18.5019   12.2795 N   0  0  0  0  0  0
  -19.0345  -17.2688   12.7068 C   0  0  0  0  0  0
  -22.8676  -20.8594   11.6441 C   0  0  2  0  0  0
  -21.3496  -18.0884   12.4162 C   0  0  0  0  0  0
  -18.2473  -16.3695   13.0966 O   0  0  0  0  0  0
  -24.5485  -20.0057   10.2759 C   0  0  0  0  0  0
  -23.8378  -18.4684   12.0290 C   0  0  0  0  0  0
  -23.7418  -19.7086   11.2856 C   0  0  0  0  0  0
  -20.9504  -24.5277    9.2029 C   0  0  0  0  0  0
  -22.6469  -23.1543   10.2939 C   0  0  0  0  0  0
  -21.2789  -25.5909   10.0591 C   0  0  0  0  0  0
  -21.6913  -23.3342    9.2806 C   0  0  0  0  0  0
  -22.9783  -24.2324   11.1144 C   0  0  0  0  0  0
  -22.3143  -25.4534   10.9846 C   0  0  0  0  0  0
  -19.7684  -24.6305    8.2707 C   0  0  0  0  0  0
  -19.1963  -24.8235    5.9101 C   0  0  0  0  0  0
  -19.8919  -26.5602    6.7497 C   0  0  0  0  0  0
  -18.8843  -26.2834    5.6531 C   0  0  0  0  0  0
  -20.1927  -25.1317    6.9482 N   0  0  0  0  0  0
  -21.2623  -14.5963   13.0117 N   0  0  0  0  0  0
  -20.9290  -15.6902   12.8469 C   0  0  0  0  0  0
  1  6  2  0  0  0
  1 10  1  0  0  0
  2 17  1  0  0  0
  2  5  2  0  0  0
  2 10  1  0  0  0
  3  9  1  0  0  0
  3 11  2  0  0  0
  3 28  1  0  0  0
  4 11  1  0  0  0
  4 14  2  0  0  0
  5 13  1  0  0  0
  6  7  1  0  0  0
  6 11  1  0  0  0
  7  8  2  0  0  0
  8  9  1  0  0  0
  9 12  2  0  0  0
 10 15  1  0  0  0
 13 15  2  0  0  0
 14 15  1  0  0  0
 16 18  2  0  0  0
 16 19  1  0  0  0
 16 22  1  0  0  0
 17 19  2  0  0  0
 17 20  1  0  0  0
 18 21  1  0  0  0
 20 21  2  0  0  0
 22 26  1  0  0  0
 23 25  1  0  0  0
 23 26  1  0  0  0
 24 25  1  0  0  0
 24 26  1  0  0  0
 27 28  3  0  0  0
M  END
> <s_m_entry_id>
816

> <s_m_entry_name>
10-myco-2_49_lig_gen_fit_add_gna.sdf.8

> <s_m_Source_Path>
C:\Users\maila\Downloads\mgr\myco-analysis

> <s_m_Source_File>
myco-10-var2-wzakresie.mae

> <i_m_Source_File_Index>
72

> <s_user_SMILES>
C1=NC(=O)C(C#N)=C(C=C2)C1=C[C@@H](C2=3)C(=CC3)c(ccc4)cc4CN5CCC5

> <minimizedAffinity>
-10.07458

> <minimizedRMSD>
0.53173

> <CNNscore>
0.8343257308

> <CNNaffinity>
7.0717811584

> <CNN_VS>
5.9001688957

> <CNNaffinity_variance>
0.0892633721

$$$$
CC/C=C\Cc1ccc(cc1)NC(C=C2)=c(c23)nc4c(c3O)=C(O)C(N)N=C4
                    3D
 Schrodinger Suite 2021-1.
 33 36  0  0  1  0            999 V2000
  -20.5847  -17.1510   12.7791 C   0  0  0  0  0  0
  -24.5306  -20.0611   11.5428 C   0  0  0  0  0  0
  -22.4533  -20.8585   11.7781 C   0  0  0  0  0  0
  -24.4827  -21.4314   11.0002 C   0  0  0  0  0  0
  -22.8080  -18.4037   12.4505 C   0  0  0  0  0  0
  -20.5601  -19.4666   12.0270 C   0  0  0  0  0  0
  -21.2967  -18.3405   12.4472 C   0  0  0  0  0  0
  -23.2456  -21.8916   11.1521 C   0  0  0  0  0  0
  -19.1861  -17.1587   12.7250 C   0  0  3  0  0  0
  -21.2057  -15.9668   13.1640 O   0  0  0  0  0  0
  -23.3258  -19.7495   12.0227 C   0  0  0  0  0  0
  -19.2067  -19.3425   11.8537 C   0  0  0  0  0  0
  -18.5423  -18.2363   12.2376 N   0  0  0  0  0  0
  -18.4167  -16.0591   13.1986 N   0  0  0  0  0  0
  -21.1746  -20.7250   11.7040 N   0  0  0  0  0  0
  -23.2589  -17.4908   11.5165 O   0  0  0  0  0  0
  -22.1960  -15.8299   13.2171 H   0  0  0  0  0  0
  -18.8410  -15.1281   13.3663 H   0  0  0  0  0  0
  -17.4111  -16.1993   13.4307 H   0  0  0  0  0  0
  -23.5934  -16.7179   12.0123 H   0  0  0  0  0  0
  -22.7753  -23.1796   10.7499 N   0  0  0  0  0  0
  -22.5440  -23.8537   11.5137 H   0  0  0  0  0  0
  -22.9172  -22.9448    8.2900 C   0  0  0  0  0  0
  -20.5597  -24.4192    8.0033 C   0  0  0  0  0  0
  -21.1920  -23.8956    6.8609 C   0  0  0  0  0  0
  -22.3830  -23.1701    7.0185 C   0  0  0  0  0  0
  -21.0788  -24.1688    9.2768 C   0  0  0  0  0  0
  -22.2568  -23.4238    9.4324 C   0  0  0  0  0  0
  -20.6981  -24.2077    5.4662 C   0  0  0  0  0  0
  -18.1666  -24.0682    5.4632 C   0  0  0  0  0  0
  -19.3039  -24.7870    5.4284 C   0  0  0  0  0  0
  -17.6897  -22.1939    7.0272 C   0  0  0  0  0  0
  -18.0929  -22.5700    5.6054 C   0  0  0  0  0  0
  1  7  2  0  0  0
  1  9  1  0  0  0
  1 10  1  0  0  0
  2  4  2  0  0  0
  2 11  1  0  0  0
  3  8  2  0  0  0
  3 11  1  0  0  0
  3 15  1  0  0  0
  4  8  1  0  0  0
  5  7  1  0  0  0
  5 11  2  0  0  0
  5 16  1  0  0  0
  6  7  1  0  0  0
  6 12  1  0  0  0
  6 15  2  0  0  0
  8 21  1  0  0  0
  9 13  1  0  0  0
  9 14  1  0  0  0
 10 17  1  0  0  0
 12 13  2  0  0  0
 14 18  1  0  0  0
 14 19  1  0  0  0
 16 20  1  0  0  0
 21 28  1  0  0  0
 21 22  1  0  0  0
 23 26  2  0  0  0
 23 28  1  0  0  0
 24 25  2  0  0  0
 24 27  1  0  0  0
 25 26  1  0  0  0
 25 29  1  0  0  0
 27 28  2  0  0  0
 29 31  1  0  0  0
 30 33  1  0  0  0
 30 31  2  0  0  0
 32 33  1  0  0  0
M  END
> <s_m_entry_id>
817

> <s_m_entry_name>
10-myco-2_50_lig_gen_fit_add_gna.sdf.2

> <s_m_Source_Path>
C:\Users\maila\Downloads\mgr\myco-analysis

> <s_m_Source_File>
myco-10-var2-wzakresie.mae

> <i_m_Source_File_Index>
73

> <s_user_SMILES>
CC/C=C\Cc1ccc(cc1)NC(C=C2)=c(c23)nc4c(c3O)=C(O)C(N)N=C4

> <minimizedAffinity>
-9.05344

> <minimizedRMSD>
1.08344

> <CNNscore>
0.5969207883

> <CNNaffinity>
6.4743928909

> <CNN_VS>
3.8646996021

> <CNNaffinity_variance>
0.1240228862

$$$$
OC(O)C=1C=Nc(c2)c1cc(c2=C34)C=C3[C@H]4Cc(cc5)ccc5CCCCC
                    3D
 Schrodinger Suite 2021-1.
 30 34  0  0  1  0            999 V2000
  -21.9853  -22.9235   10.4629 C   0  0  0  0  0  0
  -20.3642  -19.9211   11.8766 C   0  0  0  0  0  0
  -23.9960  -21.7879   10.8504 C   0  0  0  0  0  0
  -21.5595  -21.7533   11.0576 C   0  0  0  0  0  0
  -22.8207  -19.8458   11.9435 C   0  0  0  0  0  0
  -19.2975  -19.2839   12.2283 N   0  0  0  0  0  0
  -21.5428  -19.2903   12.2273 C   0  0  0  0  0  0
  -22.8475  -21.1071   11.3132 C   0  0  0  0  0  0
  -20.3506  -21.1417   11.2317 C   0  0  0  0  0  0
  -21.0886  -18.0648   12.8739 C   0  0  0  0  0  0
  -23.3595  -22.9654   10.3462 C   0  0  0  0  0  0
  -22.5918  -24.0420    9.9443 C   0  0  1  0  0  0
  -19.7609  -18.1083   12.8687 C   0  0  0  0  0  0
  -21.8329  -16.7984   13.0800 C   0  0  0  0  0  0
  -21.4659  -15.8555   12.1178 O   0  0  0  0  0  0
  -23.2070  -17.0401   13.0294 O   0  0  0  0  0  0
  -20.4757  -15.8131   12.1093 H   0  0  0  0  0  0
  -23.4604  -17.0379   12.0717 H   0  0  0  0  0  0
  -22.4457  -24.2247    8.4303 C   0  0  0  0  0  0
  -18.7127  -23.3427    6.4625 C   0  0  0  0  0  0
  -21.0944  -22.9500    6.7319 C   0  0  0  0  0  0
  -19.9300  -24.3960    8.2871 C   0  0  0  0  0  0
  -21.1225  -23.8008    7.8468 C   0  0  0  0  0  0
  -18.7353  -24.1765    7.5941 C   0  0  0  0  0  0
  -19.8989  -22.7154    6.0513 C   0  0  0  0  0  0
  -17.4533  -23.1834    5.6431 C   0  0  0  0  0  0
  -16.2534  -22.6677    6.4528 C   0  0  0  0  0  0
  -16.5066  -21.3395    7.1849 C   0  0  0  0  0  0
  -16.3922  -20.0801    6.3168 C   0  0  0  0  0  0
  -15.1215  -19.2853    6.5793 C   0  0  0  0  0  0
  1  4  2  0  0  0
  1 11  1  0  0  0
  1 12  1  0  0  0
  2  6  1  0  0  0
  2  7  1  0  0  0
  2  9  2  0  0  0
  3  8  1  0  0  0
  3 11  2  0  0  0
  4  8  1  0  0  0
  4  9  1  0  0  0
  5  7  1  0  0  0
  5  8  2  0  0  0
  6 13  2  0  0  0
  7 10  2  0  0  0
 10 14  1  0  0  0
 10 13  1  0  0  0
 11 12  1  0  0  0
 12 19  1  0  0  0
 14 15  1  0  0  0
 14 16  1  0  0  0
 15 17  1  0  0  0
 16 18  1  0  0  0
 19 23  1  0  0  0
 20 26  1  0  0  0
 20 24  2  0  0  0
 20 25  1  0  0  0
 21 23  1  0  0  0
 21 25  2  0  0  0
 22 23  2  0  0  0
 22 24  1  0  0  0
 26 27  1  0  0  0
 27 28  1  0  0  0
 28 29  1  0  0  0
 29 30  1  0  0  0
M  END
> <s_m_entry_id>
818

> <s_m_entry_name>
10-myco-2_50_lig_gen_fit_add_gna.sdf.6

> <s_m_Source_Path>
C:\Users\maila\Downloads\mgr\myco-analysis

> <s_m_Source_File>
myco-10-var2-wzakresie.mae

> <i_m_Source_File_Index>
74

> <s_user_SMILES>
OC(O)C=1C=Nc(c2)c1cc(c2=C34)C=C3[C@H]4Cc(cc5)ccc5CCCCC

> <minimizedAffinity>
-8.26612

> <minimizedRMSD>
0.83636

> <CNNscore>
0.3156752288

> <CNNaffinity>
6.0560293198

> <CNN_VS>
1.9117383957

> <CNNaffinity_variance>
0.203832835

$$$$
[C@@]123C4(C3)[C@H](C4)C[C@@H]1[C@H]2c(cc5)ccc5CNc(ccc6)cc6C7=CC(=O)[C@@H](N)C=C7O
                    3D
 Schrodinger Suite 2021-1.
 35 41  0  0  1  0            999 V2000
  -23.4495  -20.2816   11.6639 C   0  0  0  0  0  0
  -24.7070  -19.9117   11.1331 C   0  0  0  0  0  0
  -23.8670  -22.5518   10.8552 C   0  0  0  0  0  0
  -23.0653  -21.6252   11.5343 C   0  0  0  0  0  0
  -25.1671  -22.1856   10.4870 C   0  0  0  0  0  0
  -25.5820  -20.8667   10.6228 C   0  0  0  0  0  0
  -22.7803  -17.8330   12.3787 C   0  0  0  0  0  0
  -20.1003  -18.6989   12.6581 C   0  0  0  0  0  0
  -20.4257  -17.2811   13.0412 C   0  0  1  0  0  0
  -22.4407  -19.2690   12.1491 C   0  0  0  0  0  0
  -19.5682  -16.3381   12.3403 N   0  0  0  0  0  0
  -24.0583  -17.3527   12.1745 O   0  0  0  0  0  0
  -21.1492  -19.6374   12.2459 C   0  0  0  0  0  0
  -21.8635  -16.9384   12.7732 C   0  0  0  0  0  0
  -18.9114  -19.1015   12.7186 O   0  0  0  0  0  0
  -18.5694  -16.5828   12.5300 H   0  0  0  0  0  0
  -19.7424  -16.4069   11.3157 H   0  0  0  0  0  0
  -24.8713  -17.9310   12.0493 H   0  0  0  0  0  0
  -23.3316  -23.8217   10.4520 N   0  0  0  0  0  0
  -23.9739  -24.6357   10.3530 H   0  0  0  0  0  0
  -21.9471  -23.9798    9.9932 C   0  0  0  0  0  0
  -21.2209  -24.1260    5.7377 C   0  0  0  0  0  0
  -22.5871  -23.3751    7.6090 C   0  0  0  0  0  0
  -20.4760  -24.9219    6.6301 C   0  0  0  0  0  0
  -20.7811  -24.9354    7.9925 C   0  0  0  0  0  0
  -22.2928  -23.3731    6.2418 C   0  0  0  0  0  0
  -21.8332  -24.1579    8.4998 C   0  0  0  0  0  0
  -21.9295  -24.5439    3.2850 C   0  0  1  0  0  0
  -20.6117  -25.2982    3.5344 C   0  0  1  0  0  0
  -19.5068  -25.1429    0.8389 C   0  0  0  0  0  0
  -20.8718  -23.9929    4.2675 C   0  0  2  0  0  0
  -20.9043  -25.3322    1.3018 C   0  0  1  0  0  0
  -19.1592  -25.6870    3.2364 C   0  0  0  0  0  0
  -19.8329  -24.7944    2.2799 C   0  0  3  0  0  0
  -21.9276  -24.3193    1.7665 C   0  0  0  0  0  0
  1  2  2  0  0  0
  1 10  1  0  0  0
  1  4  1  0  0  0
  2  6  1  0  0  0
  3  4  2  0  0  0
  3  5  1  0  0  0
  3 19  1  0  0  0
  5  6  2  0  0  0
  7 10  1  0  0  0
  7 12  1  0  0  0
  7 14  2  0  0  0
  8  9  1  0  0  0
  8 13  1  0  0  0
  8 15  2  0  0  0
  9 11  1  0  0  0
  9 14  1  0  0  0
 10 13  2  0  0  0
 11 16  1  0  0  0
 11 17  1  0  0  0
 12 18  1  0  0  0
 19 21  1  0  0  0
 19 20  1  0  0  0
 21 27  1  0  0  0
 22 24  2  0  0  0
 22 31  1  0  0  0
 22 26  1  0  0  0
 23 26  2  0  0  0
 23 27  1  0  0  0
 24 25  1  0  0  0
 25 27  2  0  0  0
 28 29  1  0  0  0
 28 31  1  0  0  0
 28 35  1  0  0  0
 29 31  1  0  0  0
 29 33  1  0  0  0
 29 34  1  0  0  0
 30 32  1  0  0  0
 30 34  1  0  0  0
 32 34  1  0  0  0
 32 35  1  0  0  0
 33 34  1  0  0  0
M  END
> <s_m_entry_id>
819

> <s_m_entry_name>
10-myco-2_50_lig_gen_fit_add_gna.sdf.7

> <s_m_Source_Path>
C:\Users\maila\Downloads\mgr\myco-analysis

> <s_m_Source_File>
myco-10-var2-wzakresie.mae

> <i_m_Source_File_Index>
75

> <s_user_SMILES>
[C@@]123C4(C3)[C@H](C4)C[C@@H]1[C@H]2c(cc5)ccc5CNc(ccc6)cc6C7=CC(=O)[C@@H](N)C=C7O

> <minimizedAffinity>
-10.11582

> <minimizedRMSD>
1.20408

> <CNNscore>
0.688082993

> <CNNaffinity>
6.3723649979

> <CNN_VS>
4.3847160339

> <CNNaffinity_variance>
0.1632246226

$$$$
N[C@H]1C=NC(=C1/C=N/[H])c(c2)ccc(c2=3)=CCC3N[C@@H]4[C@@H](C4=5)C=C(C5)CCC[C@@H](C6)C=C6C
                    3D
 Schrodinger Suite 2021-1.
 36 41  0  0  1  0            999 V2000
  -23.2354  -20.8392   11.4816 C   0  0  0  0  0  0
  -24.3816  -20.1064   11.3262 C   0  0  0  0  0  0
  -23.3933  -22.0767   11.0412 C   0  0  0  0  0  0
  -22.0739  -20.2579   11.9557 C   0  0  0  0  0  0
  -24.4095  -18.7389   11.6222 C   0  0  0  0  0  0
  -25.3466  -20.8568   10.8139 C   0  0  0  0  0  0
  -22.0148  -18.8588   12.1315 C   0  0  0  0  0  0
  -24.8092  -22.2410   10.5680 C   0  0  0  0  0  0
  -23.2062  -18.1063   12.0034 C   0  0  0  0  0  0
  -20.2056  -17.0294   12.3403 C   0  0  0  0  0  0
  -20.6488  -18.2844   12.2178 C   0  0  0  0  0  0
  -18.7066  -17.0550   12.3392 C   0  0  1  0  0  0
  -18.1060  -16.3775   13.4786 N   0  0  0  0  0  0
  -19.5578  -19.1724   12.2838 N   0  0  0  0  0  0
  -18.4824  -18.5054   12.4146 C   0  0  0  0  0  0
  -18.3596  -16.8848   14.3553 H   0  0  0  0  0  0
  -17.0667  -16.4371   13.3855 H   0  0  0  0  0  0
  -20.9230  -15.9066   12.9016 C   0  0  0  0  0  0
  -21.5667  -15.0902   12.1609 N   0  0  0  0  0  0
  -21.8892  -14.1769   12.5482 H   0  0  0  0  0  0
  -22.3209  -23.0220   10.8590 N   0  0  0  0  0  0
  -21.3448  -22.7770   11.1362 H   0  0  0  0  0  0
  -22.5916  -24.2678    8.7498 C   0  0  0  0  0  0
  -22.5758  -23.5624    7.6647 C   0  0  0  0  0  0
  -20.5108  -24.1526    8.6185 C   0  0  0  0  0  0
  -21.1088  -23.4798    7.5969 C   0  0  0  0  0  0
  -22.5626  -24.3225   10.2569 C   0  0  1  0  0  0
  -21.4665  -24.8979    9.5322 C   0  0  1  0  0  0
  -20.3957  -23.0535    6.3414 C   0  0  0  0  0  0
  -18.8682  -22.9328    6.4823 C   0  0  0  0  0  0
  -18.3905  -21.6470    5.7709 C   0  0  0  0  0  0
  -15.3420  -19.2139    8.3351 C   0  0  0  0  0  0
  -16.3401  -21.4479    7.2856 C   0  0  0  0  0  0
  -16.8931  -21.2876    5.9091 C   0  0  2  0  0  0
  -16.0156  -20.0912    7.3336 C   0  0  0  0  0  0
  -16.5684  -19.8888    5.9557 C   0  0  0  0  0  0
  1  2  1  0  0  0
  1  3  2  0  0  0
  1  4  1  0  0  0
  2  5  1  0  0  0
  2  6  2  0  0  0
  3 21  1  0  0  0
  3  8  1  0  0  0
  4  7  2  0  0  0
  5  9  2  0  0  0
  6  8  1  0  0  0
  7 11  1  0  0  0
  7  9  1  0  0  0
 10 11  2  0  0  0
 10 12  1  0  0  0
 10 18  1  0  0  0
 11 14  1  0  0  0
 12 13  1  0  0  0
 12 15  1  0  0  0
 13 16  1  0  0  0
 13 17  1  0  0  0
 14 15  2  0  0  0
 18 19  2  0  0  0
 19 20  1  0  0  0
 21 27  1  0  0  0
 21 22  1  0  0  0
 23 24  2  0  0  0
 23 27  1  0  0  0
 23 28  1  0  0  0
 24 26  1  0  0  0
 25 26  2  0  0  0
 25 28  1  0  0  0
 26 29  1  0  0  0
 27 28  1  0  0  0
 29 30  1  0  0  0
 30 31  1  0  0  0
 31 34  1  0  0  0
 32 35  1  0  0  0
 33 34  1  0  0  0
 33 35  2  0  0  0
 34 36  1  0  0  0
 35 36  1  0  0  0
M  END
> <s_m_entry_id>
820

> <s_m_entry_name>
10-myco-2_50_lig_gen_fit_add_gna.sdf.9

> <s_m_Source_Path>
C:\Users\maila\Downloads\mgr\myco-analysis

> <s_m_Source_File>
myco-10-var2-wzakresie.mae

> <i_m_Source_File_Index>
76

> <s_user_SMILES>
N[C@H]1C=NC(=C1/C=N/[H])c(c2)ccc(c2=3)=CCC3N[C@@H]4[C@@H](C4=5)C=C(C5)CCC[C@@H](C6)C=C6C

> <minimizedAffinity>
-10.79205

> <minimizedRMSD>
0.67084

> <CNNscore>
0.7000049949

> <CNNaffinity>
7.4441080093

> <CNN_VS>
5.2109127045

> <CNNaffinity_variance>
0.2103107423

$$$$
CCCCC1=CCC(=C1)[C@H](C=C2)c(c23)cc(nc3)C4=NC=C4C
                    3D
 Schrodinger Suite 2021-1.
 23 26  0  0  1  0            999 V2000
  -23.5767  -20.8534   11.2829 C   0  0  0  0  0  0
  -24.5878  -19.9363   11.1489 C   0  0  0  0  0  0
  -22.1535  -19.1281   12.1360 C   0  0  0  0  0  0
  -25.7500  -20.5743   10.5809 C   0  0  0  0  0  0
  -24.0442  -22.1894   10.8121 C   0  0  1  0  0  0
  -24.4135  -18.6197   11.5430 C   0  0  0  0  0  0
  -22.3330  -20.4818   11.7969 C   0  0  0  0  0  0
  -25.4575  -21.8543   10.3841 C   0  0  0  0  0  0
  -23.1932  -18.2456   12.0144 N   0  0  0  0  0  0
  -19.6430  -19.0791   12.6550 N   0  0  0  0  0  0
  -20.8371  -18.6050   12.4896 C   0  0  0  0  0  0
  -19.1310  -17.7649   12.8879 C   0  0  0  0  0  0
  -20.3445  -17.2704   12.7383 C   0  0  0  0  0  0
  -20.9785  -15.9297   12.7156 C   0  0  0  0  0  0
  -22.4105  -23.3018    7.5882 C   0  0  0  0  0  0
  -21.9949  -23.2107    9.8162 C   0  0  0  0  0  0
  -21.5018  -23.5985    8.5064 C   0  0  0  0  0  0
  -23.2057  -22.6921    9.6721 C   0  0  0  0  0  0
  -23.5949  -22.6593    8.2291 C   0  0  0  0  0  0
  -20.1965  -24.2879    8.2439 C   0  0  0  0  0  0
  -20.2570  -25.7485    8.7115 C   0  0  0  0  0  0
  -20.0811  -26.2709    6.2218 C   0  0  0  0  0  0
  -20.6303  -26.7144    7.5775 C   0  0  0  0  0  0
  1  2  2  0  0  0
  1  5  1  0  0  0
  1  7  1  0  0  0
  2  4  1  0  0  0
  2  6  1  0  0  0
  3 11  1  0  0  0
  3  7  2  0  0  0
  3  9  1  0  0  0
  4  8  2  0  0  0
  5 18  1  0  0  0
  5  8  1  0  0  0
  6  9  2  0  0  0
 10 11  2  0  0  0
 10 12  1  0  0  0
 11 13  1  0  0  0
 12 13  2  0  0  0
 13 14  1  0  0  0
 15 17  2  0  0  0
 15 19  1  0  0  0
 16 17  1  0  0  0
 16 18  2  0  0  0
 17 20  1  0  0  0
 18 19  1  0  0  0
 20 21  1  0  0  0
 21 23  1  0  0  0
 22 23  1  0  0  0
M  END
> <s_m_entry_id>
821

> <s_m_entry_name>
10-myco-2_51_lig_gen_fit_add_gna.sdf.1

> <s_m_Source_Path>
C:\Users\maila\Downloads\mgr\myco-analysis

> <s_m_Source_File>
myco-10-var2-wzakresie.mae

> <i_m_Source_File_Index>
77

> <s_user_SMILES>
CCCCC1=CCC(=C1)[C@H](C=C2)c(c23)cc(nc3)C4=NC=C4C

> <minimizedAffinity>
-8.76793

> <minimizedRMSD>
0.53622

> <CNNscore>
0.8884699345

> <CNNaffinity>
6.784072876

> <CNN_VS>
6.0274448395

> <CNNaffinity_variance>
0.1790602505

$$$$
NC(=O)C[C@H](CC)C(=CC(C1=2)C1)C=CC2Cn3cnc(c4)c3cc5c4c(c6C)c5nc(c67)o7
                    3D
 Schrodinger Suite 2021-1.
 35 41  0  0  1  0            999 V2000
  -23.7745  -23.1263   10.9258 C   0  0  0  0  0  0
  -22.4289  -18.2829   12.1584 C   0  0  0  0  0  0
  -21.6009  -19.3926   12.0239 C   0  0  0  0  0  0
  -21.3506  -17.5083   12.5297 C   0  0  0  0  0  0
  -23.4340  -20.6813   11.3743 C   0  0  0  0  0  0
  -24.2599  -19.5592   11.4525 C   0  0  0  0  0  0
  -23.7984  -18.2974   11.8948 C   0  0  0  0  0  0
  -20.8851  -16.2222   12.9218 C   0  0  0  0  0  0
  -25.5012  -19.8758   11.0367 N   0  0  0  0  0  0
  -25.4089  -21.2023   10.7434 C   0  0  0  0  0  0
  -20.4986  -18.6328   12.3557 C   0  0  0  0  0  0
  -24.1736  -21.7194   10.9672 N   0  0  0  0  0  0
  -22.0475  -20.6492   11.6423 C   0  0  0  0  0  0
  -21.7238  -15.0215   13.0532 C   0  0  0  0  0  0
  -19.1228  -18.6820   12.5110 N   0  0  0  0  0  0
  -19.5059  -16.3182   13.0645 C   0  0  0  0  0  0
  -18.7816  -17.4214   12.8721 C   0  0  0  0  0  0
  -18.1897  -16.2938   13.2293 O   0  0  0  0  0  0
  -23.0239  -22.9678    8.6032 C   0  0  0  0  0  0
  -22.8083  -23.4007    9.8114 C   0  0  0  0  0  0
  -20.5601  -24.5250    9.0272 C   0  0  0  0  0  0
  -20.3507  -24.3337    7.6761 C   0  0  0  0  0  0
  -21.8643  -24.5895    9.8503 C   0  0  0  0  0  0
  -23.5387  -22.3433    7.4427 C   0  0  0  0  0  0
  -21.3375  -23.7244    6.7201 C   0  0  0  0  0  0
  -22.3681  -23.1131    7.2318 C   0  0  3  0  0  0
  -18.9451  -24.5846    7.1327 C   0  0  1  0  0  0
  -19.0134  -25.0736    5.6597 C   0  0  0  0  0  0
  -18.5289  -26.5118    5.4693 C   0  0  0  0  0  0
  -18.0976  -23.3009    7.3111 C   0  0  0  0  0  0
  -16.7461  -23.3980    6.6625 C   0  0  0  0  0  0
  -15.9034  -24.2300    7.0930 O   0  0  0  0  0  0
  -16.3990  -22.5440    5.5720 N   0  0  0  0  0  0
  -15.4553  -22.6123    5.1302 H   0  0  0  0  0  0
  -17.0863  -21.8608    5.1848 H   0  0  0  0  0  0
  1 20  1  0  0  0
  1 12  1  0  0  0
  2  3  1  0  0  0
  2  4  1  0  0  0
  2  7  2  0  0  0
  3 11  1  0  0  0
  3 13  2  0  0  0
  4  8  2  0  0  0
  4 11  1  0  0  0
  5  6  2  0  0  0
  5 12  1  0  0  0
  5 13  1  0  0  0
  6  7  1  0  0  0
  6  9  1  0  0  0
  8 14  1  0  0  0
  8 16  1  0  0  0
  9 10  2  0  0  0
 10 12  1  0  0  0
 11 15  2  0  0  0
 15 17  1  0  0  0
 16 17  2  0  0  0
 16 18  1  0  0  0
 17 18  1  0  0  0
 19 20  2  0  0  0
 19 24  1  0  0  0
 19 26  1  0  0  0
 20 23  1  0  0  0
 21 22  1  0  0  0
 21 23  2  0  0  0
 22 27  1  0  0  0
 22 25  2  0  0  0
 24 26  1  0  0  0
 25 26  1  0  0  0
 27 28  1  0  0  0
 27 30  1  0  0  0
 28 29  1  0  0  0
 30 31  1  0  0  0
 31 32  2  0  0  0
 31 33  1  0  0  0
 33 34  1  0  0  0
 33 35  1  0  0  0
M  END
> <s_m_entry_id>
822

> <s_m_entry_name>
10-myco-2_51_lig_gen_fit_add_gna.sdf.7

> <s_m_Source_Path>
C:\Users\maila\Downloads\mgr\myco-analysis

> <s_m_Source_File>
myco-10-var2-wzakresie.mae

> <i_m_Source_File_Index>
78

> <s_user_SMILES>
NC(=O)C[C@H](CC)C(=CC(C1=2)C1)C=CC2Cn3cnc(c4)c3cc5c4c(c6C)c5nc(c67)o7

> <minimizedAffinity>
-10.48792

> <minimizedRMSD>
0.78277

> <CNNscore>
0.8846774101

> <CNNaffinity>
7.6722154617

> <CNN_VS>
6.7874355316

> <CNNaffinity_variance>
0.1835971326

$$$$
C1CC1NC=C=Cc2ccc(cc2)Cn(cc3)c(c34)C=C(C4)C(=C5C)N=NC5
                    3D
 Schrodinger Suite 2021-1.
 29 33  0  0  1  0            999 V2000
  -23.9959  -22.6090   10.8139 C   0  0  0  0  0  0
  -22.0280  -18.8111   12.1748 C   0  0  0  0  0  0
  -23.6021  -20.2496   11.5408 C   0  0  0  0  0  0
  -24.2256  -19.0812   11.5640 C   0  0  0  0  0  0
  -22.2104  -20.1143   11.8933 C   0  0  0  0  0  0
  -25.4861  -20.5755   10.5792 C   0  0  0  0  0  0
  -25.4473  -19.2227   10.9429 C   0  0  0  0  0  0
  -24.3354  -21.1991   10.9511 N   0  0  0  0  0  0
  -23.3215  -18.0225   12.0526 C   0  0  0  0  0  0
  -20.4140  -16.9655   12.8005 C   0  0  0  0  0  0
  -20.7168  -18.2371   12.5435 C   0  0  0  0  0  0
  -19.5617  -19.0360   12.7203 N   0  0  0  0  0  0
  -18.9809  -16.9202   13.2108 C   0  0  0  0  0  0
  -21.2963  -15.7657   12.6827 C   0  0  0  0  0  0
  -18.5899  -18.3108   13.0916 N   0  0  0  0  0  0
  -23.6288  -22.6400    8.3235 C   0  0  0  0  0  0
  -21.5246  -23.3896    7.3658 C   0  0  0  0  0  0
  -20.9970  -23.5289    8.6639 C   0  0  0  0  0  0
  -21.7936  -23.2615    9.7791 C   0  0  0  0  0  0
  -22.8367  -22.9168    7.2082 C   0  0  0  0  0  0
  -23.1186  -22.8282    9.6161 C   0  0  0  0  0  0
  -20.7539  -23.7525    6.1596 C   0  0  0  0  0  0
  -19.8175  -24.6655    6.1592 C   0  0  0  0  0  0
  -18.8876  -25.5825    6.1054 C   0  0  0  0  0  0
  -19.0967  -26.8953    6.6389 N   0  0  0  0  0  0
  -18.7263  -27.6947    6.0864 H   0  0  0  0  0  0
  -20.1188  -28.5342    8.2162 C   0  0  0  0  0  0
  -21.0317  -27.3230    8.1757 C   0  0  0  0  0  0
  -19.5358  -27.1419    8.0144 C   0  0  0  0  0  0
  1  8  1  0  0  0
  1 21  1  0  0  0
  2  5  2  0  0  0
  2 11  1  0  0  0
  2  9  1  0  0  0
  3  4  2  0  0  0
  3  5  1  0  0  0
  3  8  1  0  0  0
  4  7  1  0  0  0
  4  9  1  0  0  0
  6  7  2  0  0  0
  6  8  1  0  0  0
 10 11  2  0  0  0
 10 13  1  0  0  0
 10 14  1  0  0  0
 11 12  1  0  0  0
 12 15  2  0  0  0
 13 15  1  0  0  0
 16 20  2  0  0  0
 16 21  1  0  0  0
 17 18  2  0  0  0
 17 22  1  0  0  0
 17 20  1  0  0  0
 18 19  1  0  0  0
 19 21  2  0  0  0
 22 23  2  0  0  0
 23 24  2  0  0  0
 24 25  1  0  0  0
 25 29  1  0  0  0
 25 26  1  0  0  0
 27 28  1  0  0  0
 27 29  1  0  0  0
 28 29  1  0  0  0
M  END
> <s_m_entry_id>
823

> <s_m_entry_name>
10-myco-2_51_lig_gen_fit_add_gna.sdf.8

> <s_m_Source_Path>
C:\Users\maila\Downloads\mgr\myco-analysis

> <s_m_Source_File>
myco-10-var2-wzakresie.mae

> <i_m_Source_File_Index>
79

> <s_user_SMILES>
C1CC1NC=C=Cc2ccc(cc2)Cn(cc3)c(c34)C=C(C4)C(=C5C)N=NC5

> <minimizedAffinity>
-9.11105

> <minimizedRMSD>
0.48748

> <CNNscore>
0.9282136559

> <CNNaffinity>
6.7645330429

> <CNN_VS>
6.2789320946

> <CNNaffinity_variance>
0.2349242717

$$$$
C1NCC1CC(=C2)CC=C2CC3=Cc(c34)ccc(c4)C5=NC(=C5)N
                    3D
 Schrodinger Suite 2021-1.
 27 31  0  0  1  0            999 V2000
  -24.4764  -18.9091   11.4252 C   0  0  0  0  0  0
  -24.9267  -21.4735   10.6075 C   0  0  0  0  0  0
  -24.3240  -20.2555   11.1434 C   0  0  0  0  0  0
  -22.0128  -20.3593   11.8155 C   0  0  0  0  0  0
  -22.0807  -18.9691   12.0711 C   0  0  0  0  0  0
  -23.1737  -20.9270   11.3451 C   0  0  0  0  0  0
  -23.3119  -18.2540   11.9046 C   0  0  0  0  0  0
  -23.7912  -22.1447   10.8615 C   0  0  0  0  0  0
  -20.8483  -18.2731   12.4290 C   0  0  0  0  0  0
  -19.1338  -17.4882   12.8906 C   0  0  0  0  0  0
  -19.4752  -18.6599   12.4686 N   0  0  0  0  0  0
  -20.5171  -17.0588   12.8253 C   0  0  0  0  0  0
  -17.9105  -16.8884   13.2770 N   0  0  0  0  0  0
  -17.0350  -17.4483   13.2799 H   0  0  0  0  0  0
  -17.8957  -15.9056   13.6056 H   0  0  0  0  0  0
  -23.2817  -23.5239   10.6439 C   0  0  0  0  0  0
  -22.9492  -23.5516    8.1558 C   0  0  0  0  0  0
  -22.4640  -23.5694    9.3895 C   0  0  0  0  0  0
  -21.0188  -23.4680    9.3359 C   0  0  0  0  0  0
  -20.6499  -23.3866    8.0657 C   0  0  0  0  0  0
  -21.8402  -23.4515    7.1619 C   0  0  0  0  0  0
  -19.2432  -23.1458    7.6068 C   0  0  0  0  0  0
  -17.0707  -24.3567    7.0164 C   0  0  0  0  0  0
  -18.7362  -25.5338    6.8106 C   0  0  0  0  0  0
  -17.4547  -25.4401    6.1099 N   0  0  1  0  0  0
  -18.3871  -24.4097    7.7739 C   0  0  0  0  0  0
  -17.6267  -25.0303    5.1611 H   0  0  0  0  0  0
  1  3  2  0  0  0
  1  7  1  0  0  0
  2  3  1  0  0  0
  2  8  2  0  0  0
  3  6  1  0  0  0
  4  5  1  0  0  0
  4  6  2  0  0  0
  5  9  1  0  0  0
  5  7  2  0  0  0
  6  8  1  0  0  0
  8 16  1  0  0  0
  9 11  2  0  0  0
  9 12  1  0  0  0
 10 11  1  0  0  0
 10 12  2  0  0  0
 10 13  1  0  0  0
 13 14  1  0  0  0
 13 15  1  0  0  0
 16 18  1  0  0  0
 17 18  2  0  0  0
 17 21  1  0  0  0
 18 19  1  0  0  0
 19 20  2  0  0  0
 20 21  1  0  0  0
 20 22  1  0  0  0
 22 26  1  0  0  0
 23 25  1  0  0  0
 23 26  1  0  0  0
 24 25  1  0  0  0
 24 26  1  0  0  0
 25 27  1  0  0  0
M  END
> <s_m_entry_id>
824

> <s_m_entry_name>
10-myco-2_51_lig_gen_fit_add_gna.sdf.9

> <s_m_Source_Path>
C:\Users\maila\Downloads\mgr\myco-analysis

> <s_m_Source_File>
myco-10-var2-wzakresie.mae

> <i_m_Source_File_Index>
80

> <s_user_SMILES>
C1NCC1CC(=C2)CC=C2CC3=Cc(c34)ccc(c4)C5=NC(=C5)N

> <minimizedAffinity>
-8.88756

> <minimizedRMSD>
0.77041

> <CNNscore>
0.8892926574

> <CNNaffinity>
6.4481391907

> <CNN_VS>
5.7342829704

> <CNNaffinity_variance>
0.1320023686

$$$$
c12c(N2)nc(N)c(c1/C=N/[H])[C@H]3c(c34)ccc(c4)Cc5ccc(cc5)N6CCCCNC6
                    3D
 Schrodinger Suite 2021-1.
 36 41  0  0  1  0            999 V2000
  -24.6277  -18.5726   11.1722 C   0  0  0  0  0  0
  -23.2332  -21.2457   11.4894 C   0  0  0  0  0  0
  -24.3033  -21.0259   10.5522 C   0  0  0  0  0  0
  -22.8918  -20.0952   12.1068 C   0  0  0  0  0  0
  -23.5490  -18.8079   11.9606 C   0  0  0  0  0  0
  -24.9978  -19.7404   10.4291 C   0  0  0  0  0  0
  -22.4399  -18.9745   12.8021 C   0  0  2  0  0  0
  -19.9427  -19.3714   12.1077 C   0  0  0  0  0  0
  -18.5660  -17.7289   12.7131 C   0  0  0  0  0  0
  -18.6197  -18.9888   12.3190 N   0  0  0  0  0  0
  -20.8675  -17.0430   12.6510 C   0  0  0  0  0  0
  -21.0946  -18.4455   12.3556 C   0  0  0  0  0  0
  -20.1565  -20.6665   11.5311 N   0  0  0  0  0  0
  -18.2290  -16.4444   13.1444 N   0  0  0  0  0  0
  -19.5554  -16.8062   12.8798 C   0  0  0  0  0  0
  -19.3471  -21.2968   11.3615 H   0  0  0  0  0  0
  -20.9003  -20.8001   10.8206 H   0  0  0  0  0  0
  -17.5294  -15.7538   13.4756 H   0  0  0  0  0  0
  -21.9052  -16.0204   12.7264 C   0  0  0  0  0  0
  -21.6089  -14.7749   12.5612 N   0  0  0  0  0  0
  -22.3302  -14.0241   12.5348 H   0  0  0  0  0  0
  -24.7131  -22.1658    9.6803 C   0  0  0  0  0  0
  -21.4067  -24.0373    9.4375 C   0  0  0  0  0  0
  -23.4931  -22.8395    9.1032 C   0  0  0  0  0  0
  -22.0043  -23.2445    7.2275 C   0  0  0  0  0  0
  -21.0926  -23.8910    8.0773 C   0  0  0  0  0  0
  -23.1924  -22.7133    7.7390 C   0  0  0  0  0  0
  -22.6026  -23.5269    9.9437 C   0  0  0  0  0  0
  -19.4292  -25.7570    7.8053 C   0  0  0  0  0  0
  -17.5304  -23.9141    6.6379 C   0  0  0  0  0  0
  -17.6409  -24.8127    5.3967 C   0  0  0  0  0  0
  -19.0838  -26.4922    6.5693 N   0  0  1  0  0  0
  -18.8799  -23.3306    7.0785 C   0  0  0  0  0  0
  -18.9073  -25.6860    5.3535 C   0  0  0  0  0  0
  -19.8261  -24.3515    7.5726 N   0  0  0  0  0  0
  -18.2189  -27.0592    6.7344 H   0  0  0  0  0  0
  1  5  2  0  0  0
  1  6  1  0  0  0
  2  3  1  0  0  0
  2  4  2  0  0  0
  3 22  1  0  0  0
  3  6  2  0  0  0
  4  5  1  0  0  0
  4  7  1  0  0  0
  5  7  1  0  0  0
  7 12  1  0  0  0
  8 10  2  0  0  0
  8 12  1  0  0  0
  8 13  1  0  0  0
  9 10  1  0  0  0
  9 14  1  0  0  0
  9 15  2  0  0  0
 11 12  2  0  0  0
 11 19  1  0  0  0
 11 15  1  0  0  0
 13 16  1  0  0  0
 13 17  1  0  0  0
 14 15  1  0  0  0
 14 18  1  0  0  0
 19 20  2  0  0  0
 20 21  1  0  0  0
 22 24  1  0  0  0
 23 26  2  0  0  0
 23 28  1  0  0  0
 24 27  1  0  0  0
 24 28  2  0  0  0
 25 26  1  0  0  0
 25 27  2  0  0  0
 26 35  1  0  0  0
 29 32  1  0  0  0
 29 35  1  0  0  0
 30 31  1  0  0  0
 30 33  1  0  0  0
 31 34  1  0  0  0
 32 34  1  0  0  0
 32 36  1  0  0  0
 33 35  1  0  0  0
M  END
> <s_m_entry_id>
825

> <s_m_entry_name>
10-myco-2_51_lig_gen_fit_add_gna.sdf.10

> <s_m_Source_Path>
C:\Users\maila\Downloads\mgr\myco-analysis

> <s_m_Source_File>
myco-10-var2-wzakresie.mae

> <i_m_Source_File_Index>
81

> <s_user_SMILES>
c12c(N2)nc(N)c(c1/C=N/[H])[C@H]3c(c34)ccc(c4)Cc5ccc(cc5)N6CCCCNC6

> <minimizedAffinity>
-9.70699

> <minimizedRMSD>
0.48948

> <CNNscore>
0.6928170323

> <CNNaffinity>
6.7126402855

> <CNN_VS>
4.6506314278

> <CNNaffinity_variance>
0.1906354278

$$$$
CCCNC(=O)c1ccc(cc1)Cc(c2)c3c(cc4c2c34)[C@@H](C=C5F)C=C5
                    3D
 Schrodinger Suite 2021-1.
 28 32  0  0  1  0            999 V2000
  -22.4621  -21.3867   11.9173 C   0  0  0  0  0  0
  -24.3591  -20.0859   11.3549 C   0  0  0  0  0  0
  -23.8953  -19.0324   11.8583 C   0  0  0  0  0  0
  -23.2509  -22.5744   11.2607 C   0  0  0  0  0  0
  -24.6055  -21.3286   10.8936 C   0  0  0  0  0  0
  -22.6713  -19.8607   12.2032 C   0  0  0  0  0  0
  -24.5977  -22.5397   10.5598 C   0  0  0  0  0  0
  -23.5396  -21.0287   11.4849 C   0  0  0  0  0  0
  -20.2109  -19.4489   12.5504 C   0  0  0  0  0  0
  -19.5404  -18.3116   12.5271 C   0  0  0  0  0  0
  -20.4163  -17.2204   12.8888 C   0  0  0  0  0  0
  -21.6114  -17.7223   13.1475 C   0  0  0  0  0  0
  -21.5977  -19.2160   13.0595 C   0  0  1  0  0  0
  -18.2291  -18.1921   12.2140 F   0  0  0  0  0  0
  -22.6462  -23.9417   11.4488 C   0  0  0  0  0  0
  -21.7750  -24.4225   10.3143 C   0  0  0  0  0  0
  -21.4816  -25.7923   10.2348 C   0  0  0  0  0  0
  -20.1563  -24.0077    8.5433 C   0  0  0  0  0  0
  -20.5292  -26.2650    9.3305 C   0  0  0  0  0  0
  -21.1151  -23.5355    9.4460 C   0  0  0  0  0  0
  -19.8295  -25.3736    8.5024 C   0  0  0  0  0  0
  -18.8652  -26.9886    7.0652 O   0  0  0  0  0  0
  -18.7307  -25.8781    7.6485 C   0  0  0  0  0  0
  -17.4957  -25.1513    7.5275 N   0  0  0  0  0  0
  -17.4055  -24.2030    7.9550 H   0  0  0  0  0  0
  -16.3016  -25.7182    6.8991 C   0  0  0  0  0  0
  -16.0328  -25.0576    5.5453 C   0  0  0  0  0  0
  -16.7951  -25.7429    4.4129 C   0  0  0  0  0  0
  1  4  1  0  0  0
  1  6  2  0  0  0
  1  8  1  0  0  0
  2  3  2  0  0  0
  2  5  1  0  0  0
  2  8  1  0  0  0
  3  6  1  0  0  0
  4 15  1  0  0  0
  4  7  2  0  0  0
  5  7  1  0  0  0
  5  8  2  0  0  0
  6 13  1  0  0  0
  9 10  2  0  0  0
  9 13  1  0  0  0
 10 11  1  0  0  0
 10 14  1  0  0  0
 11 12  2  0  0  0
 12 13  1  0  0  0
 15 16  1  0  0  0
 16 17  2  0  0  0
 16 20  1  0  0  0
 17 19  1  0  0  0
 18 20  2  0  0  0
 18 21  1  0  0  0
 19 21  2  0  0  0
 21 23  1  0  0  0
 22 23  2  0  0  0
 23 24  1  0  0  0
 24 26  1  0  0  0
 24 25  1  0  0  0
 26 27  1  0  0  0
 27 28  1  0  0  0
M  END
> <s_m_entry_id>
826

> <s_m_entry_name>
10-myco-2_52_lig_gen_fit_add_gna.sdf.3

> <s_m_Source_Path>
C:\Users\maila\Downloads\mgr\myco-analysis

> <s_m_Source_File>
myco-10-var2-wzakresie.mae

> <i_m_Source_File_Index>
82

> <s_user_SMILES>
CCCNC(=O)c1ccc(cc1)Cc(c2)c3c(cc4c2c34)[C@@H](C=C5F)C=C5

> <minimizedAffinity>
-9.0226

> <minimizedRMSD>
0.2653

> <CNNscore>
0.6449513435

> <CNNaffinity>
6.0971045494

> <CNN_VS>
3.9323358536

> <CNNaffinity_variance>
0.1373507828

$$$$
c12c(C1)ncc(c2)-c(c3)ccc(C)c3Cc4ccc(cc4)[C@@H]5CN5CC6=CCC=C6
                    3D
 Schrodinger Suite 2021-1.
 30 35  0  0  1  0            999 V2000
  -22.0426  -23.7943   10.5780 C   0  0  0  0  0  0
  -20.6332  -25.5281    9.6080 C   0  0  0  0  0  0
  -21.7946  -22.9919    9.4500 C   0  0  0  0  0  0
  -20.4119  -24.7398    8.4619 C   0  0  0  0  0  0
  -21.4499  -25.0656   10.6442 C   0  0  0  0  0  0
  -20.9885  -23.4610    8.4059 C   0  0  0  0  0  0
  -19.6788  -25.2581    7.2358 C   0  0  1  0  0  0
  -18.2464  -25.6004    7.4398 N   0  0  1  0  0  0
  -19.2764  -26.6629    7.3393 C   0  0  0  0  0  0
  -17.4565  -25.5965    6.1902 C   0  0  0  0  0  0
  -16.2379  -23.6339    7.1743 C   0  0  0  0  0  0
  -16.3938  -24.5463    6.2288 C   0  0  0  0  0  0
  -15.0159  -22.8167    6.9017 C   0  0  0  0  0  0
  -15.2715  -24.4804    5.3143 C   0  0  0  0  0  0
  -14.4922  -23.4760    5.6683 C   0  0  0  0  0  0
  -23.0389  -23.3792   11.6413 C   0  0  0  0  0  0
  -22.2102  -21.1278   12.3498 C   0  0  0  0  0  0
  -23.3672  -19.0682   11.8549 C   0  0  0  0  0  0
  -23.2159  -21.8754   11.7342 C   0  0  0  0  0  0
  -24.4252  -19.8035   11.3185 C   0  0  0  0  0  0
  -22.2168  -19.7192   12.3157 C   0  0  0  0  0  0
  -25.4470  -21.9558   10.5441 C   0  0  0  0  0  0
  -24.3348  -21.2009   11.1990 C   0  0  0  0  0  0
  -20.9493  -18.9721   12.5521 C   0  0  0  0  0  0
  -18.5233  -17.9774   13.0034 C   0  0  0  0  0  0
  -19.6937  -19.7620   12.5138 C   0  0  0  0  0  0
  -20.9401  -17.5278   12.7455 C   0  0  0  0  0  0
  -18.3768  -16.6297   13.2548 C   0  0  0  0  0  0
  -19.6699  -17.0995   12.9951 C   0  0  0  0  0  0
  -18.4357  -19.2631   12.7924 N   0  0  0  0  0  0
  1  3  2  0  0  0
  1  5  1  0  0  0
  1 16  1  0  0  0
  2  4  1  0  0  0
  2  5  2  0  0  0
  3  6  1  0  0  0
  4  7  1  0  0  0
  4  6  2  0  0  0
  7  8  1  0  0  0
  7  9  1  0  0  0
  8 10  1  0  0  0
  8  9  1  0  0  0
 10 12  1  0  0  0
 11 12  2  0  0  0
 11 13  1  0  0  0
 12 14  1  0  0  0
 13 15  1  0  0  0
 14 15  2  0  0  0
 16 19  1  0  0  0
 17 19  2  0  0  0
 17 21  1  0  0  0
 18 20  1  0  0  0
 18 21  2  0  0  0
 19 23  1  0  0  0
 20 23  2  0  0  0
 21 24  1  0  0  0
 22 23  1  0  0  0
 24 26  2  0  0  0
 24 27  1  0  0  0
 25 28  1  0  0  0
 25 29  1  0  0  0
 25 30  2  0  0  0
 26 30  1  0  0  0
 27 29  2  0  0  0
 28 29  1  0  0  0
M  END
> <s_m_entry_id>
827

> <s_m_entry_name>
10-myco-2_52_lig_gen_fit_add_gna.sdf.4

> <s_m_Source_Path>
C:\Users\maila\Downloads\mgr\myco-analysis

> <s_m_Source_File>
myco-10-var2-wzakresie.mae

> <i_m_Source_File_Index>
83

> <s_user_SMILES>
c12c(C1)ncc(c2)-c(c3)ccc(C)c3Cc4ccc(cc4)[C@@H]5CN5CC6=CCC=C6

> <minimizedAffinity>
-9.78673

> <minimizedRMSD>
0.56205

> <CNNscore>
0.9807080626

> <CNNaffinity>
7.3344430923

> <CNN_VS>
7.1929473877

> <CNNaffinity_variance>
0.0286374725

$$$$
NC(=N1)C=C1C(=CC2)[C@H](C=23)N(C=C3)/C=C4/C=C(C=C4)CN5CCCC5
                    3D
 Schrodinger Suite 2021-1.
 27 31  0  0  1  0            999 V2000
  -24.5127  -20.7619   10.6561 C   0  0  0  0  0  0
  -24.9080  -19.6460   11.2357 C   0  0  0  0  0  0
  -22.7580  -19.9380   11.8786 C   0  0  0  0  0  0
  -25.1941  -22.0213   10.8555 C   0  0  0  0  0  0
  -23.0618  -20.9743   10.8352 C   0  0  1  0  0  0
  -24.2924  -22.9074   11.2338 C   0  0  0  0  0  0
  -23.8024  -19.1374   12.0111 C   0  0  0  0  0  0
  -22.9664  -22.3737   11.2531 N   0  0  0  0  0  0
  -19.5874  -19.0468   12.7116 C   0  0  0  0  0  0
  -21.4286  -19.5417   12.3448 C   0  0  0  0  0  0
  -20.1647  -20.1868   12.5000 N   0  0  0  0  0  0
  -20.8696  -18.3825   12.6350 C   0  0  0  0  0  0
  -18.2527  -18.6162   12.9443 N   0  0  0  0  0  0
  -18.0441  -17.6034   13.0870 H   0  0  0  0  0  0
  -17.4876  -19.3170   13.0076 H   0  0  0  0  0  0
  -22.1311  -22.6979    8.3945 C   0  0  0  0  0  0
  -21.8799  -23.2179   10.8454 C   0  0  0  0  0  0
  -20.4857  -24.1015    7.7053 C   0  0  0  0  0  0
  -21.4942  -23.1187    7.3156 C   0  0  0  0  0  0
  -20.5216  -24.2671    9.0270 C   0  0  0  0  0  0
  -21.5394  -23.3624    9.5551 C   0  0  0  0  0  0
  -19.7437  -24.9454    6.7064 C   0  0  0  0  0  0
  -17.3922  -24.8245    7.3205 C   0  0  0  0  0  0
  -17.1983  -26.3592    5.4659 C   0  0  0  0  0  0
  -18.2209  -26.8250    6.4931 C   0  0  0  0  0  0
  -16.6469  -25.0559    6.0137 C   0  0  0  0  0  0
  -18.5984  -25.6628    7.3104 N   0  0  0  0  0  0
  1  2  2  0  0  0
  1  4  1  0  0  0
  1  5  1  0  0  0
  2  7  1  0  0  0
  3  5  1  0  0  0
  3 10  1  0  0  0
  3  7  2  0  0  0
  4  6  2  0  0  0
  5  8  1  0  0  0
  6  8  1  0  0  0
  8 17  1  0  0  0
  9 11  2  0  0  0
  9 12  1  0  0  0
  9 13  1  0  0  0
 10 11  1  0  0  0
 10 12  2  0  0  0
 13 14  1  0  0  0
 13 15  1  0  0  0
 16 19  2  0  0  0
 16 21  1  0  0  0
 17 21  2  0  0  0
 18 19  1  0  0  0
 18 22  1  0  0  0
 18 20  2  0  0  0
 20 21  1  0  0  0
 22 27  1  0  0  0
 23 26  1  0  0  0
 23 27  1  0  0  0
 24 25  1  0  0  0
 24 26  1  0  0  0
 25 27  1  0  0  0
M  END
> <s_m_entry_id>
828

> <s_m_entry_name>
10-myco-2_52_lig_gen_fit_add_gna.sdf.10

> <s_m_Source_Path>
C:\Users\maila\Downloads\mgr\myco-analysis

> <s_m_Source_File>
myco-10-var2-wzakresie.mae

> <i_m_Source_File_Index>
84

> <s_user_SMILES>
NC(=N1)C=C1C(=CC2)[C@H](C=23)N(C=C3)/C=C4/C=C(C=C4)CN5CCCC5

> <minimizedAffinity>
-8.68421

> <minimizedRMSD>
0.59179

> <CNNscore>
0.923181951

> <CNNaffinity>
6.8981180191

> <CNN_VS>
6.3682179451

> <CNNaffinity_variance>
0.0715828091

$$$$
C1C=CC=C1CC[C@@H](CC)NC2C=CC(C=23)=CC=C3c4c(N)cc(O)nc4
                    3D
 Schrodinger Suite 2021-1.
 31 34  0  0  1  0            999 V2000
  -25.0654  -20.8802   10.9099 C   0  0  0  0  0  0
  -23.6786  -21.0485   11.1590 C   0  0  0  0  0  0
  -24.2528  -18.9097   11.4806 C   0  0  0  0  0  0
  -23.1840  -19.7115   11.6137 C   0  0  0  0  0  0
  -24.5515  -22.7553    9.9074 C   0  0  0  0  0  0
  -23.3190  -22.1604   10.4839 C   0  0  0  0  0  0
  -25.4186  -19.6283   10.9883 C   0  0  0  0  0  0
  -25.5899  -21.9760   10.1490 C   0  0  0  0  0  0
  -21.5709  -17.9493   12.6370 C   0  0  0  0  0  0
  -20.7600  -20.1458   12.0854 C   0  0  0  0  0  0
  -19.2270  -18.4316   12.7044 C   0  0  0  0  0  0
  -21.8497  -19.2728   12.1679 C   0  0  0  0  0  0
  -17.9192  -18.0244   12.9203 O   0  0  0  0  0  0
  -20.2619  -17.5523   12.9090 C   0  0  0  0  0  0
  -19.4953  -19.6927   12.2982 N   0  0  0  0  0  0
  -22.5787  -16.9697   12.8184 N   0  0  0  0  0  0
  -17.6995  -17.0877   13.2384 H   0  0  0  0  0  0
  -22.3292  -15.9946   13.0975 H   0  0  0  0  0  0
  -22.3290  -15.9947   13.0976 H   0  0  0  0  0  0
  -22.0027  -22.5488   10.0598 N   0  0  0  0  0  0
  -21.1904  -22.2733   10.6431 H   0  0  0  0  0  0
  -21.7826  -23.3301    8.8216 C   0  0  2  0  0  0
  -19.9775  -25.1171    8.4664 C   0  0  0  0  0  0
  -20.2681  -23.6233    8.6317 C   0  0  0  0  0  0
  -22.3958  -22.5404    7.6377 C   0  0  0  0  0  0
  -21.6647  -22.6031    6.2902 C   0  0  0  0  0  0
  -22.3307  -21.6802    5.2961 C   0  0  0  0  0  0
  -22.2295  -20.3569    5.3171 C   0  0  0  0  0  0
  -23.1795  -22.1081    4.1401 C   0  0  0  0  0  0
  -22.9485  -19.8114    4.1852 C   0  0  0  0  0  0
  -23.4765  -20.8008    3.4897 C   0  0  0  0  0  0
  1  2  1  0  0  0
  1  7  2  0  0  0
  1  8  1  0  0  0
  2  4  1  0  0  0
  2  6  2  0  0  0
  3  4  2  0  0  0
  3  7  1  0  0  0
  4 12  1  0  0  0
  5  6  1  0  0  0
  5  8  2  0  0  0
  6 20  1  0  0  0
  9 12  2  0  0  0
  9 14  1  0  0  0
  9 16  1  0  0  0
 10 12  1  0  0  0
 10 15  2  0  0  0
 11 13  1  0  0  0
 11 14  2  0  0  0
 11 15  1  0  0  0
 13 17  1  0  0  0
 16 18  1  0  0  0
 16 19  1  0  0  0
 20 22  1  0  0  0
 20 21  1  0  0  0
 22 25  1  0  0  0
 22 24  1  0  0  0
 23 24  1  0  0  0
 25 26  1  0  0  0
 26 27  1  0  0  0
 27 28  2  0  0  0
 27 29  1  0  0  0
 28 30  1  0  0  0
 29 31  1  0  0  0
 30 31  2  0  0  0
M  END
> <s_m_entry_id>
829

> <s_m_entry_name>
10-myco-2_53_lig_gen_fit_add_gna.sdf.1

> <s_m_Source_Path>
C:\Users\maila\Downloads\mgr\myco-analysis

> <s_m_Source_File>
myco-10-var2-wzakresie.mae

> <i_m_Source_File_Index>
85

> <s_user_SMILES>
C1C=CC=C1CC[C@@H](CC)NC2C=CC(C=23)=CC=C3c4c(N)cc(O)nc4

> <minimizedAffinity>
-9.22779

> <minimizedRMSD>
0.76252

> <CNNscore>
0.5986403823

> <CNNaffinity>
6.959291935

> <CNN_VS>
4.1661133766

> <CNNaffinity_variance>
0.215488717

$$$$
C1=CC=CC1C[C@@H]2CC[C@@H](CN2)Nc3cccc(c3=4)=CC4c5ncc(O)c(c56)CC6
                    3D
 Schrodinger Suite 2021-1.
 33 38  0  0  1  0            999 V2000
  -23.9473  -20.2703   11.1985 C   0  0  0  0  0  0
  -25.0695  -20.0383    7.3586 C   0  0  0  0  0  0
  -25.0657  -19.7336    9.6841 C   0  0  0  0  0  0
  -23.9670  -21.7066    8.8401 C   0  0  0  0  0  0
  -24.2836  -20.8207    9.8753 C   0  0  0  0  0  0
  -24.9981  -19.4456   11.1011 C   0  0  0  0  0  0
  -25.5155  -19.2887    8.4603 C   0  0  0  0  0  0
  -24.3717  -21.2676    7.5467 C   0  0  0  0  0  0
  -20.3510  -20.7120   11.9382 C   0  0  0  0  0  0
  -21.6818  -21.0270   11.7334 N   0  0  0  0  0  0
  -22.3307  -18.9237   12.4583 C   0  0  0  0  0  0
  -21.3425  -17.1714   12.9287 C   0  0  0  0  0  0
  -20.9768  -18.5790   12.6554 C   0  0  0  0  0  0
  -22.7298  -17.5249   12.7118 C   0  0  0  0  0  0
  -19.9532  -19.4503   12.4308 C   0  0  0  0  0  0
  -22.7114  -20.1604   11.9762 C   0  0  0  0  0  0
  -18.6221  -19.0939   12.6071 O   0  0  0  0  0  0
  -18.3653  -18.1708   12.9380 H   0  0  0  0  0  0
  -23.6458  -23.0973    9.0371 N   0  0  0  0  0  0
  -24.2386  -23.7440    8.4830 H   0  0  0  0  0  0
  -22.4151  -25.1912    9.5356 C   0  0  0  0  0  0
  -22.0393  -25.5736    8.0915 C   0  0  0  0  0  0
  -21.1780  -23.0143    9.2015 C   0  0  0  0  0  0
  -22.4728  -23.6629    9.7244 C   0  0  1  0  0  0
  -20.2015  -23.9343    8.5965 N   0  0  1  0  0  0
  -20.7331  -24.8884    7.6105 C   0  0  2  0  0  0
  -19.4237  -23.3758    8.1728 H   0  0  0  0  0  0
  -20.7867  -24.3190    6.1575 C   0  0  0  0  0  0
  -22.6524  -23.9858    4.4351 C   0  0  0  0  0  0
  -23.0751  -22.9058    3.8002 C   0  0  0  0  0  0
  -21.9912  -22.1465    5.6124 C   0  0  0  0  0  0
  -22.1106  -23.6237    5.7787 C   0  0  0  0  0  0
  -22.6800  -21.7413    4.5640 C   0  0  0  0  0  0
  1  5  2  0  0  0
  1  6  1  0  0  0
  1 16  1  0  0  0
  2  7  2  0  0  0
  2  8  1  0  0  0
  3  5  1  0  0  0
  3  6  2  0  0  0
  3  7  1  0  0  0
  4  5  1  0  0  0
  4 19  1  0  0  0
  4  8  2  0  0  0
  9 10  2  0  0  0
  9 15  1  0  0  0
 10 16  1  0  0  0
 11 13  1  0  0  0
 11 14  1  0  0  0
 11 16  2  0  0  0
 12 13  1  0  0  0
 12 14  1  0  0  0
 13 15  2  0  0  0
 15 17  1  0  0  0
 17 18  1  0  0  0
 19 24  1  0  0  0
 19 20  1  0  0  0
 21 22  1  0  0  0
 21 24  1  0  0  0
 22 26  1  0  0  0
 23 24  1  0  0  0
 23 25  1  0  0  0
 25 26  1  0  0  0
 25 27  1  0  0  0
 26 28  1  0  0  0
 28 32  1  0  0  0
 29 30  2  0  0  0
 29 32  1  0  0  0
 30 33  1  0  0  0
 31 32  1  0  0  0
 31 33  2  0  0  0
M  END
> <s_m_entry_id>
830

> <s_m_entry_name>
10-myco-2_53_lig_gen_fit_add_gna.sdf.2

> <s_m_Source_Path>
C:\Users\maila\Downloads\mgr\myco-analysis

> <s_m_Source_File>
myco-10-var2-wzakresie.mae

> <i_m_Source_File_Index>
86

> <s_user_SMILES>
C1=CC=CC1C[C@@H]2CC[C@@H](CN2)Nc3cccc(c3=4)=CC4c5ncc(O)c(c56)CC6

> <minimizedAffinity>
-10.17366

> <minimizedRMSD>
0.68917

> <CNNscore>
0.5254540443

> <CNNaffinity>
6.9528741837

> <CNN_VS>
3.6534159184

> <CNNaffinity_variance>
0.0926165655

$$$$
n1ccccc1[C@H](O)/C(=C\C)Nc(c2C)cc(cc2)C3=CC(O)=CC3
                    3D
 Schrodinger Suite 2021-1.
 28 30  0  0  1  0            999 V2000
  -22.7459  -22.9154   10.3895 N   0  0  0  0  0  0
  -23.1810  -23.7920   10.7496 H   0  0  0  0  0  0
  -22.3421  -20.7491   11.5427 C   0  0  0  0  0  0
  -24.9736  -19.9707   11.0369 C   0  0  0  0  0  0
  -24.5677  -21.2741   10.7382 C   0  0  0  0  0  0
  -24.0757  -19.0553   11.5616 C   0  0  0  0  0  0
  -22.7580  -19.4332   11.8628 C   0  0  0  0  0  0
  -25.6062  -22.2696   10.3372 C   0  0  0  0  0  0
  -23.2147  -21.6454   10.8977 C   0  0  0  0  0  0
  -19.8170  -17.1907   12.6451 C   0  0  0  0  0  0
  -21.7787  -18.4156   12.3485 C   0  0  0  0  0  0
  -20.8612  -16.4167   12.8482 C   0  0  0  0  0  0
  -20.2836  -18.5687   12.3233 C   0  0  0  0  0  0
  -22.0844  -17.1611   12.6709 C   0  0  0  0  0  0
  -20.7868  -15.0693   13.1621 O   0  0  0  0  0  0
  -21.6206  -14.5057   13.2540 H   0  0  0  0  0  0
  -21.9026  -23.0701    9.2308 C   0  0  0  0  0  0
  -20.5973  -23.3126    9.4532 C   0  0  0  0  0  0
  -19.6178  -23.7432    8.3942 C   0  0  0  0  0  0
  -22.5425  -23.3652    7.8699 C   0  0  1  0  0  0
  -23.7171  -24.0984    8.0739 O   0  0  0  0  0  0
  -23.9813  -24.4838    7.1967 H   0  0  0  0  0  0
  -22.8438  -22.1408    7.0304 C   0  0  0  0  0  0
  -24.3678  -20.4230    6.2631 C   0  0  0  0  0  0
  -22.3359  -20.8809    5.0690 C   0  0  0  0  0  0
  -24.0388  -21.4238    7.1761 C   0  0  0  0  0  0
  -23.5332  -20.1769    5.1787 C   0  0  0  0  0  0
  -22.0259  -21.8452    5.9783 N   0  0  0  0  0  0
  1 17  1  0  0  0
  1  9  1  0  0  0
  1  2  1  0  0  0
  3  7  2  0  0  0
  3  9  1  0  0  0
  4  5  1  0  0  0
  4  6  2  0  0  0
  5  8  1  0  0  0
  5  9  2  0  0  0
  6  7  1  0  0  0
  7 11  1  0  0  0
 10 12  2  0  0  0
 10 13  1  0  0  0
 11 13  1  0  0  0
 11 14  2  0  0  0
 12 14  1  0  0  0
 12 15  1  0  0  0
 15 16  1  0  0  0
 17 18  2  0  0  0
 17 20  1  0  0  0
 18 19  1  0  0  0
 20 23  1  0  0  0
 20 21  1  0  0  0
 21 22  1  0  0  0
 23 26  2  0  0  0
 23 28  1  0  0  0
 24 26  1  0  0  0
 24 27  2  0  0  0
 25 27  1  0  0  0
 25 28  2  0  0  0
M  END
> <s_m_entry_id>
831

> <s_m_entry_name>
10-myco-2_53_lig_gen_fit_add_gna.sdf.5

> <s_m_Source_Path>
C:\Users\maila\Downloads\mgr\myco-analysis

> <s_m_Source_File>
myco-10-var2-wzakresie.mae

> <i_m_Source_File_Index>
87

> <s_user_SMILES>
n1ccccc1[C@H](O)/C(=C\C)Nc(c2C)cc(cc2)C3=CC(O)=CC3

> <minimizedAffinity>
-9.69947

> <minimizedRMSD>
0.73268

> <CNNscore>
0.7837297916

> <CNNaffinity>
6.3957586288

> <CNN_VS>
5.0125465393

> <CNNaffinity_variance>
0.13954404

$$$$
c1ccccc1C(=C)CC=C=C(C=C2)C(=C3)C2=CC=[C]34C5=C4N=C(N)C5C
                    3D
 Schrodinger Suite 2021-1.
 29 33  0  0  1  0            999 V2000
  -21.2084  -18.4519   13.1919 C   0  0  0  0  0  0
  -23.1739  -18.4338   11.9043 C   0  0  0  0  0  0
  -19.1688  -18.0547   12.4595 C   0  0  0  0  0  0
  -23.2113  -21.2909   11.5541 C   0  0  0  0  0  0
  -24.2591  -20.4453   11.0334 C   0  0  0  0  0  0
  -23.5850  -22.6672   11.2132 C   0  0  0  0  0  0
  -24.9470  -22.5583   10.6605 C   0  0  0  0  0  0
  -22.2665  -20.8422   12.3920 C   0  0  0  0  0  0
  -19.5140  -19.0992   11.6760 N   0  0  0  0  0  0
  -22.1100  -19.3337   12.5724 C   0  0  0  0  0  0
  -22.7478  -23.5378   10.7088 C   0  0  0  0  0  0
  -20.7818  -16.0747   12.8491 C   0  0  0  0  0  0
  -24.2653  -19.1288   11.1437 C   0  0  0  0  0  0
  -17.8403  -17.5452   12.4179 N   0  0  0  0  0  0
  -21.9571  -24.4158   10.1446 C   0  0  0  0  0  0
  -20.7908  -19.1923   12.1467 C   0  0  0  0  0  0
  -20.2683  -17.3845   13.4437 C   0  0  0  0  0  0
  -25.3168  -21.2912   10.5154 C   0  0  0  0  0  0
  -17.5456  -16.7970   13.0820 H   0  0  0  0  0  0
  -17.1472  -17.9388   11.7443 H   0  0  0  0  0  0
  -22.0470  -24.7240    8.6732 C   0  0  0  0  0  0
  -21.3867  -23.6422    7.8397 C   0  0  0  0  0  0
  -20.0476  -23.5566    7.8898 C   0  0  0  0  0  0
  -23.6239  -20.5636    5.7872 C   0  0  0  0  0  0
  -24.1337  -21.1583    6.9373 C   0  0  0  0  0  0
  -22.4303  -21.0305    5.2429 C   0  0  0  0  0  0
  -23.4544  -22.2164    7.5413 C   0  0  0  0  0  0
  -22.1996  -22.6385    7.0702 C   0  0  0  0  0  0
  -21.7241  -22.0605    5.8744 C   0  0  0  0  0  0
  1 10  1  0  0  0
  1 16  2  0  0  0
  1 17  1  0  0  0
  2 10  2  0  0  0
  2 13  1  0  0  0
  3  9  2  0  0  0
  3 14  1  0  0  0
  3 17  1  0  0  0
  4  5  1  0  0  0
  4  6  1  0  0  0
  4  8  2  0  0  0
  5 13  2  0  0  0
  5 18  1  0  0  0
  6  7  1  0  0  0
  6 11  2  0  0  0
  7 18  2  0  0  0
  8 10  1  0  0  0
  9 16  1  0  0  0
 10 16  1  0  0  0
 11 15  2  0  0  0
 12 17  1  0  0  0
 14 19  1  0  0  0
 14 20  1  0  0  0
 15 21  1  0  0  0
 21 22  1  0  0  0
 22 28  1  0  0  0
 22 23  2  0  0  0
 24 25  2  0  0  0
 24 26  1  0  0  0
 25 27  1  0  0  0
 26 29  2  0  0  0
 27 28  2  0  0  0
 28 29  1  0  0  0
M  END
> <s_m_entry_id>
832

> <s_m_entry_name>
10-myco-2_53_lig_gen_fit_add_gna.sdf.6

> <s_m_Source_Path>
C:\Users\maila\Downloads\mgr\myco-analysis

> <s_m_Source_File>
myco-10-var2-wzakresie.mae

> <i_m_Source_File_Index>
88

> <s_user_SMILES>
c1ccccc1C(=C)CC=C=C(C=C2)C(=C3)C2=CC=[C]34C5=C4N=C(N)C5C

> <minimizedAffinity>
-11.24371

> <minimizedRMSD>
0.42263

> <CNNscore>
0.7555850744

> <CNNaffinity>
7.2670431137

> <CNN_VS>
5.4908695221

> <CNNaffinity_variance>
0.2186808586

$$$$
C1C=CC=C1C(CC)=C=CC2=CC=C(C2=3)C=CC4C(C3)=NC(N)=C4CO
                    3D
 Schrodinger Suite 2021-1.
 29 32  0  0  1  0            999 V2000
  -22.0151  -21.1608   12.2016 C   0  0  0  0  0  0
  -24.1968  -18.8131   11.7459 C   0  0  0  0  0  0
  -20.5330  -17.7027   12.4656 C   0  0  0  0  0  0
  -23.6929  -22.1223   10.5954 C   0  0  0  0  0  0
  -25.3944  -20.6364   10.6200 C   0  0  0  0  0  0
  -24.2558  -20.0796   11.3359 C   0  0  0  0  0  0
  -19.5381  -18.5636   12.5943 C   0  0  0  0  0  0
  -23.2145  -21.1005   11.3090 C   0  0  0  0  0  0
  -22.9977  -18.0681   12.1710 C   0  0  0  0  0  0
  -19.9663  -19.9044   12.4340 N   0  0  0  0  0  0
  -18.2524  -18.2318   13.1142 N   0  0  0  0  0  0
  -21.2393  -19.8906   12.2350 C   0  0  0  0  0  0
  -25.0604  -21.8324   10.1744 C   0  0  0  0  0  0
  -21.7451  -18.5170   12.2748 C   0  0  3  0  0  0
  -17.7607  -18.9457   13.6839 H   0  0  0  0  0  0
  -17.8873  -17.2547   13.1348 H   0  0  0  0  0  0
  -22.9309  -23.2881   10.1444 C   0  0  0  0  0  0
  -22.7138  -23.4195    8.8640 C   0  0  0  0  0  0
  -22.4585  -23.5155    7.5791 C   0  0  0  0  0  0
  -22.8706  -22.4246    6.6588 C   0  0  0  0  0  0
  -23.0256  -20.9878    4.8477 C   0  0  0  0  0  0
  -23.7818  -21.4908    6.9126 C   0  0  0  0  0  0
  -22.2869  -22.2028    5.2993 C   0  0  0  0  0  0
  -23.8775  -20.5949    5.7771 C   0  0  0  0  0  0
  -21.3954  -25.8138    8.0023 C   0  0  0  0  0  0
  -21.6095  -24.6457    7.0345 C   0  0  0  0  0  0
  -20.3714  -16.2344   12.7096 C   0  0  0  0  0  0
  -21.2549  -15.4698   11.9549 O   0  0  0  0  0  0
  -21.1653  -14.5392   12.2883 H   0  0  0  0  0  0
  1  8  2  0  0  0
  1 12  1  0  0  0
  2  6  1  0  0  0
  2  9  2  0  0  0
  3  7  2  0  0  0
  3 14  1  0  0  0
  3 27  1  0  0  0
  4 17  1  0  0  0
  4  8  1  0  0  0
  4 13  2  0  0  0
  5  6  2  0  0  0
  5 13  1  0  0  0
  6  8  1  0  0  0
  7 10  1  0  0  0
  7 11  1  0  0  0
  9 14  1  0  0  0
 10 12  2  0  0  0
 11 15  1  0  0  0
 11 16  1  0  0  0
 12 14  1  0  0  0
 17 18  2  0  0  0
 18 19  2  0  0  0
 19 20  1  0  0  0
 19 26  1  0  0  0
 20 22  2  0  0  0
 20 23  1  0  0  0
 21 23  1  0  0  0
 21 24  2  0  0  0
 22 24  1  0  0  0
 25 26  1  0  0  0
 27 28  1  0  0  0
 28 29  1  0  0  0
M  END
> <s_m_entry_id>
833

> <s_m_entry_name>
10-myco-2_53_lig_gen_fit_add_gna.sdf.8

> <s_m_Source_Path>
C:\Users\maila\Downloads\mgr\myco-analysis

> <s_m_Source_File>
myco-10-var2-wzakresie.mae

> <i_m_Source_File_Index>
89

> <s_user_SMILES>
C1C=CC=C1C(CC)=C=CC2=CC=C(C2=3)C=CC4C(C3)=NC(N)=C4CO

> <minimizedAffinity>
-11.01745

> <minimizedRMSD>
0.45636

> <CNNscore>
0.7409684658

> <CNNaffinity>
7.1122102737

> <CNN_VS>
5.269923687

> <CNNaffinity_variance>
0.2595100999

$$$$
CC1=CCC=C1C[C@](C)(CC)CC=2C=CC(C23)=CC(=C3)[C@]([C@]456)([C@H]4N6)C(O)(O)[C@@H]5N
                    3D
 Schrodinger Suite 2021-1.
 34 39  0  0  1  0            999 V2000
  -25.1168  -19.8803   10.8607 C   0  0  0  0  0  0
  -23.7070  -21.7072   11.0370 C   0  0  0  0  0  0
  -21.8690  -20.3275   12.3255 C   0  0  0  0  0  0
  -25.0275  -21.1894   10.5912 C   0  0  0  0  0  0
  -23.2828  -18.5199   12.0679 C   0  0  0  0  0  0
  -21.9552  -18.9974   12.5767 C   0  0  0  0  0  0
  -23.0823  -20.6841   11.6049 C   0  0  0  0  0  0
  -23.8734  -19.5490   11.5154 C   0  0  0  0  0  0
  -21.0981  -16.8004   12.2667 C   0  0  2  0  0  0
  -19.3872  -18.5962   12.5478 C   0  0  0  0  0  0
  -18.7687  -17.2101   12.7135 C   0  0  2  0  0  0
  -20.7215  -15.5553   12.9205 N   0  0  1  0  0  0
  -20.7583  -18.1137   12.9877 C   0  0  2  0  0  0
  -17.6099  -17.2323   13.6058 N   0  0  0  0  0  0
  -20.0999  -16.7956   13.3661 C   0  0  1  0  0  0
  -19.4268  -19.0319   11.2619 O   0  0  0  0  0  0
  -18.8228  -19.5349   13.3956 O   0  0  0  0  0  0
  -20.0588  -15.0379   12.3243 H   0  0  0  0  0  0
  -17.9088  -17.1619   14.5984 H   0  0  0  0  0  0
  -17.0014  -16.4173   13.3819 H   0  0  0  0  0  0
  -19.5717  -20.0154   11.2961 H   0  0  0  0  0  0
  -17.9050  -19.6987   13.0518 H   0  0  0  0  0  0
  -23.2492  -23.1385   10.9865 C   0  0  0  0  0  0
  -22.5995  -23.5415    9.6280 C   0  0  1  0  0  0
  -21.2292  -22.8446    9.5243 C   0  0  0  0  0  0
  -22.4021  -25.0953    9.5740 C   0  0  0  0  0  0
  -21.3158  -25.6884   10.4644 C   0  0  0  0  0  0
  -23.5624  -23.1746    8.4335 C   0  0  0  0  0  0
  -22.4497  -21.5330    5.3281 C   0  0  0  0  0  0
  -22.3058  -22.4899    6.2309 C   0  0  0  0  0  0
  -23.7476  -21.0264    7.1649 C   0  0  0  0  0  0
  -21.5325  -23.7493    5.9968 C   0  0  0  0  0  0
  -23.4301  -20.5160    5.7994 C   0  0  0  0  0  0
  -23.1142  -22.1711    7.4021 C   0  0  0  0  0  0
  1  4  2  0  0  0
  1  8  1  0  0  0
  2  4  1  0  0  0
  2 23  1  0  0  0
  2  7  2  0  0  0
  3  6  2  0  0  0
  3  7  1  0  0  0
  5  6  1  0  0  0
  5  8  2  0  0  0
  6 13  1  0  0  0
  7  8  1  0  0  0
  9 12  1  0  0  0
  9 13  1  0  0  0
  9 15  1  0  0  0
 10 11  1  0  0  0
 10 13  1  0  0  0
 10 16  1  0  0  0
 10 17  1  0  0  0
 11 14  1  0  0  0
 11 15  1  0  0  0
 12 15  1  0  0  0
 12 18  1  0  0  0
 13 15  1  0  0  0
 14 19  1  0  0  0
 14 20  1  0  0  0
 16 21  1  0  0  0
 17 22  1  0  0  0
 23 24  1  0  0  0
 24 26  1  0  0  0
 24 28  1  0  0  0
 24 25  1  0  0  0
 26 27  1  0  0  0
 28 34  1  0  0  0
 29 30  2  0  0  0
 29 33  1  0  0  0
 30 32  1  0  0  0
 30 34  1  0  0  0
 31 33  1  0  0  0
 31 34  2  0  0  0
M  END
> <s_m_entry_id>
834

> <s_m_entry_name>
10-myco-2_53_lig_gen_fit_add_gna.sdf.10

> <s_m_Source_Path>
C:\Users\maila\Downloads\mgr\myco-analysis

> <s_m_Source_File>
myco-10-var2-wzakresie.mae

> <i_m_Source_File_Index>
90

> <s_user_SMILES>
CC1=CCC=C1C[C@](C)(CC)CC=2C=CC(C23)=CC(=C3)[C@]([C@]456)([C@H]4N6)C(O)(O)[C@@H]5N

> <minimizedAffinity>
-9.71959

> <minimizedRMSD>
0.71426

> <CNNscore>
0.2491895556

> <CNNaffinity>
6.5934915543

> <CNN_VS>
1.643029213

> <CNNaffinity_variance>
0.065435186

$$$$
CNC(C1)=CC=C1C/C(C)=C/C=C/C(=C)c2cc(N)[nH]c2
                    3D
 Schrodinger Suite 2021-1.
 25 26  0  0  1  0            999 V2000
  -23.3285  -19.1227   11.3274 C   0  0  0  0  0  0
  -22.6519  -18.9053   12.4396 C   0  0  0  0  0  0
  -24.4156  -20.9238   10.0472 C   0  0  0  0  0  0
  -23.4145  -20.4963   10.8187 C   0  0  0  0  0  0
  -25.6734  -20.1287    9.8848 C   0  0  0  0  0  0
  -24.1899  -22.1294    9.1764 C   0  0  0  0  0  0
  -22.5661  -20.6047    6.1408 C   0  0  0  0  0  0
  -23.3715  -21.7230    7.9822 C   0  0  0  0  0  0
  -22.2698  -22.3323    7.5623 C   0  0  0  0  0  0
  -21.7502  -21.6151    6.4068 C   0  0  0  0  0  0
  -23.6754  -20.5371    7.1245 C   0  0  0  0  0  0
  -23.3151  -19.3328    4.0936 C   0  0  0  0  0  0
  -22.3283  -19.6245    5.1264 N   0  0  0  0  0  0
  -21.4723  -19.0380    5.1895 H   0  0  0  0  0  0
  -21.8963  -17.6669   12.6496 C   0  0  0  0  0  0
  -22.2518  -16.8921   13.6447 C   0  0  0  0  0  0
  -19.7537  -18.7577   12.2496 C   0  0  0  0  0  0
  -18.4074  -17.1463   12.6420 C   0  0  0  0  0  0
  -19.6251  -16.5632   12.3900 C   0  0  0  0  0  0
  -20.5044  -17.6210   12.2064 C   0  0  0  0  0  0
  -18.5014  -18.4654   12.5807 N   0  0  0  0  0  0
  -17.3121  -16.5271   13.2808 N   0  0  0  0  0  0
  -17.8535  -19.0924   13.0716 H   0  0  0  0  0  0
  -17.4319  -15.5912   13.7053 H   0  0  0  0  0  0
  -17.4081  -15.5908   13.7092 H   0  0  0  0  0  0
  1  4  1  0  0  0
  1  2  2  0  0  0
  2 15  1  0  0  0
  3  4  2  0  0  0
  3  5  1  0  0  0
  3  6  1  0  0  0
  6  8  1  0  0  0
  7 10  2  0  0  0
  7 11  1  0  0  0
  7 13  1  0  0  0
  8  9  2  0  0  0
  8 11  1  0  0  0
  9 10  1  0  0  0
 12 13  1  0  0  0
 13 14  1  0  0  0
 15 20  1  0  0  0
 15 16  2  0  0  0
 17 20  2  0  0  0
 17 21  1  0  0  0
 18 19  2  0  0  0
 18 21  1  0  0  0
 18 22  1  0  0  0
 19 20  1  0  0  0
 21 23  1  0  0  0
 22 24  1  0  0  0
 22 25  1  0  0  0
M  END
> <s_m_entry_id>
835

> <s_m_entry_name>
10-myco-2_54_lig_gen_fit_add_gna.sdf.3

> <s_m_Source_Path>
C:\Users\maila\Downloads\mgr\myco-analysis

> <s_m_Source_File>
myco-10-var2-wzakresie.mae

> <i_m_Source_File_Index>
91

> <s_user_SMILES>
CNC(C1)=CC=C1C/C(C)=C/C=C/C(=C)c2cc(N)[nH]c2

> <minimizedAffinity>
-8.16084

> <minimizedRMSD>
0.91369

> <CNNscore>
0.6842139959

> <CNNaffinity>
6.450378418

> <CNN_VS>
4.4134392738

> <CNNaffinity_variance>
0.0797868147

$$$$
N=Cc(c1)ncc2c1[C]23=C4C3=CC=C4Cc5cc(O)ccc5
                    3D
 Schrodinger Suite 2021-1.
 24 28  0  0  1  0            999 V2000
  -19.6796  -17.1733   12.4999 C   0  0  0  0  0  0
  -23.5980  -19.2930   11.7599 C   0  0  0  0  0  0
  -23.7073  -20.9625   10.6005 C   0  0  0  0  0  0
  -24.7810  -20.1635   10.3879 C   0  0  0  0  0  0
  -19.6506  -19.6416   12.2699 C   0  0  0  0  0  0
  -21.0998  -17.0102   12.3445 C   0  0  0  0  0  0
  -22.6691  -20.4627   11.5800 C   0  0  0  0  0  0
  -22.3269  -19.4185   12.5240 C   0  0  0  0  0  0
  -20.9877  -19.4727   12.0665 C   0  0  0  0  0  0
  -24.7203  -18.9889   11.2195 C   0  0  0  0  0  0
  -21.6941  -18.2088   12.1406 C   0  0  0  0  0  0
  -19.0557  -18.4244   12.5174 N   0  0  0  0  0  0
  -17.5739  -16.1012   12.6908 N   0  0  0  0  0  0
  -18.8639  -16.0186   12.7819 C   0  0  0  0  0  0
  -16.9389  -15.3059   12.9064 H   0  0  0  0  0  0
  -23.5946  -22.3688   10.0971 C   0  0  0  0  0  0
  -21.3693  -23.1576    9.2073 C   0  0  0  0  0  0
  -21.8932  -22.0195    6.7022 C   0  0  0  0  0  0
  -22.8270  -21.8902    7.7406 C   0  0  0  0  0  0
  -20.7058  -22.7262    6.9199 C   0  0  0  0  0  0
  -22.1342  -21.4486    5.4546 O   0  0  0  0  0  0
  -22.5773  -22.4725    8.9941 C   0  0  0  0  0  0
  -20.4399  -23.2843    8.1724 C   0  0  0  0  0  0
  -22.9805  -20.9239    5.2667 H   0  0  0  0  0  0
  1  6  2  0  0  0
  1 14  1  0  0  0
  1 12  1  0  0  0
  2  7  1  0  0  0
  2  8  1  0  0  0
  2 10  2  0  0  0
  3  4  2  0  0  0
  3  7  1  0  0  0
  3 16  1  0  0  0
  4 10  1  0  0  0
  5  9  1  0  0  0
  5 12  2  0  0  0
  6 11  1  0  0  0
  7  8  2  0  0  0
  8  9  1  0  0  0
  8 11  1  0  0  0
  9 11  2  0  0  0
 13 14  2  0  0  0
 13 15  1  0  0  0
 16 22  1  0  0  0
 17 22  2  0  0  0
 17 23  1  0  0  0
 18 19  2  0  0  0
 18 20  1  0  0  0
 18 21  1  0  0  0
 19 22  1  0  0  0
 20 23  2  0  0  0
 21 24  1  0  0  0
M  END
> <s_m_entry_id>
836

> <s_m_entry_name>
10-myco-2_54_lig_gen_fit_add_gna.sdf.4

> <s_m_Source_Path>
C:\Users\maila\Downloads\mgr\myco-analysis

> <s_m_Source_File>
myco-10-var2-wzakresie.mae

> <i_m_Source_File_Index>
92

> <s_user_SMILES>
N=Cc(c1)ncc2c1[C]23=C4C3=CC=C4Cc5cc(O)ccc5

> <minimizedAffinity>
-9.51163

> <minimizedRMSD>
0.9525

> <CNNscore>
0.8075973988

> <CNNaffinity>
6.5053725243

> <CNN_VS>
5.253721714

> <CNNaffinity_variance>
0.1924304664

$$$$
c1ccc(CN)cc1CC=2C=CN[C@H](C3)C2C=c(c=34)ncc(c4)N
                    3D
 Schrodinger Suite 2021-1.
 29 32  0  0  1  0            999 V2000
  -20.0111  -17.1575   12.8780 C   0  0  0  0  0  0
  -21.2280  -19.5035   12.0834 C   0  0  0  0  0  0
  -21.3761  -17.1551   12.6136 C   0  0  0  0  0  0
  -24.0452  -19.5750   11.5993 C   0  0  1  0  0  0
  -23.3033  -18.3093   11.8470 C   0  0  0  0  0  0
  -23.7053  -21.8964   10.8368 C   0  0  0  0  0  0
  -25.0994  -21.8544   10.3696 C   0  0  0  0  0  0
  -19.9016  -19.4422   12.3211 N   0  0  0  0  0  0
  -25.0937  -19.4724   10.6010 N   0  0  0  0  0  0
  -21.7340  -20.6647   11.6752 C   0  0  0  0  0  0
  -19.2740  -18.3160   12.6992 C   0  0  0  0  0  0
  -19.3712  -16.0076   13.3773 N   0  0  0  0  0  0
  -22.0060  -18.3258   12.1848 C   0  0  0  0  0  0
  -25.7580  -20.7022   10.3005 C   0  0  0  0  0  0
  -23.1479  -20.7605   11.3050 C   0  0  0  0  0  0
  -25.6066  -18.5723   10.4647 H   0  0  0  0  0  0
  -19.9059  -15.1271   13.5543 H   0  0  0  0  0  0
  -18.3687  -16.1100   13.6471 H   0  0  0  0  0  0
  -23.0459  -23.2460   10.9760 C   0  0  0  0  0  0
  -22.2469  -23.7442    9.8021 C   0  0  0  0  0  0
  -20.7207  -24.8146    7.7057 C   0  0  0  0  0  0
  -21.5476  -23.7069    7.4698 C   0  0  0  0  0  0
  -21.4019  -24.8442   10.0191 C   0  0  0  0  0  0
  -22.3035  -23.1636    8.5222 C   0  0  0  0  0  0
  -20.6453  -25.3744    8.9766 C   0  0  0  0  0  0
  -21.6372  -23.1297    6.0862 C   0  0  0  0  0  0
  -22.3655  -24.0138    5.1824 N   0  0  0  0  0  0
  -21.9379  -24.9674    5.2256 H   0  0  0  0  0  0
  -23.3548  -24.0840    5.5124 H   0  0  0  0  0  0
  1  3  2  0  0  0
  1 11  1  0  0  0
  1 12  1  0  0  0
  2  8  1  0  0  0
  2 10  2  0  0  0
  2 13  1  0  0  0
  3 13  1  0  0  0
  4  5  1  0  0  0
  4  9  1  0  0  0
  4 15  1  0  0  0
  5 13  2  0  0  0
  6  7  1  0  0  0
  6 19  1  0  0  0
  6 15  2  0  0  0
  7 14  2  0  0  0
  8 11  2  0  0  0
  9 14  1  0  0  0
  9 16  1  0  0  0
 10 15  1  0  0  0
 12 17  1  0  0  0
 12 18  1  0  0  0
 19 20  1  0  0  0
 20 23  2  0  0  0
 20 24  1  0  0  0
 21 22  1  0  0  0
 21 25  2  0  0  0
 22 26  1  0  0  0
 22 24  2  0  0  0
 23 25  1  0  0  0
 26 27  1  0  0  0
 27 28  1  0  0  0
 27 29  1  0  0  0
M  END
> <s_m_entry_id>
837

> <s_m_entry_name>
10-myco-2_54_lig_gen_fit_add_gna.sdf.7

> <s_m_Source_Path>
C:\Users\maila\Downloads\mgr\myco-analysis

> <s_m_Source_File>
myco-10-var2-wzakresie.mae

> <i_m_Source_File_Index>
93

> <s_user_SMILES>
c1ccc(CN)cc1CC=2C=CN[C@H](C3)C2C=c(c=34)ncc(c4)N

> <minimizedAffinity>
-9.99747

> <minimizedRMSD>
0.5439

> <CNNscore>
0.8015186191

> <CNNaffinity>
6.5878739357

> <CNN_VS>
5.2803034782

> <CNNaffinity_variance>
0.3862874806

$$$$
C1C(N)=NC=C1C(=C2/C=N/[H])C=C2NC[C@@H]3C=CC=C3CCC
                    3D
 Schrodinger Suite 2021-1.
 26 28  0  0  1  0            999 V2000
  -22.1372  -18.5646   12.2641 C   0  0  0  0  0  0
  -22.6427  -19.7729   12.0223 C   0  0  0  0  0  0
  -23.8526  -19.1566   11.5382 C   0  0  0  0  0  0
  -23.4569  -18.0009   12.0337 C   0  0  0  0  0  0
  -18.7592  -17.0800   12.6590 C   0  0  0  0  0  0
  -19.7942  -18.9333   12.4436 C   0  0  0  0  0  0
  -18.5312  -18.3221   12.4491 N   0  0  0  0  0  0
  -20.2189  -16.7590   12.8526 C   0  0  0  0  0  0
  -17.7556  -16.1266   12.3773 N   0  0  0  0  0  0
  -20.7859  -18.1167   12.6254 C   0  0  0  0  0  0
  -16.7493  -16.4032   12.3912 H   0  0  0  0  0  0
  -18.0340  -15.2840   11.8465 H   0  0  0  0  0  0
  -21.0930  -21.4698   11.3765 N   0  0  0  0  0  0
  -22.1753  -21.1586   12.0049 C   0  0  0  0  0  0
  -20.8030  -22.4635   11.2689 H   0  0  0  0  0  0
  -24.9867  -19.6418   10.8412 N   0  0  0  0  0  0
  -25.7514  -18.9803   10.5809 H   0  0  0  0  0  0
  -25.1654  -21.0753   10.6661 C   0  0  0  0  0  0
  -24.0170  -20.7600    8.2407 C   0  0  0  0  0  0
  -23.6377  -22.7493    9.4024 C   0  0  0  0  0  0
  -23.0368  -21.4436    7.6579 C   0  0  0  0  0  0
  -24.6178  -21.6297    9.3232 C   0  0  1  0  0  0
  -22.8021  -22.6795    8.3806 C   0  0  0  0  0  0
  -24.5028  -19.3988    7.7842 C   0  0  0  0  0  0
  -25.7904  -18.1701    5.8642 C   0  0  0  0  0  0
  -24.7752  -19.2320    6.2660 C   0  0  0  0  0  0
  1  2  2  0  0  0
  1  4  1  0  0  0
  1 10  1  0  0  0
  2  3  1  0  0  0
  2 14  1  0  0  0
  3 16  1  0  0  0
  3  4  2  0  0  0
  5  7  2  0  0  0
  5  8  1  0  0  0
  5  9  1  0  0  0
  6  7  1  0  0  0
  6 10  2  0  0  0
  8 10  1  0  0  0
  9 11  1  0  0  0
  9 12  1  0  0  0
 13 14  2  0  0  0
 13 15  1  0  0  0
 16 18  1  0  0  0
 16 17  1  0  0  0
 18 22  1  0  0  0
 19 21  2  0  0  0
 19 22  1  0  0  0
 19 24  1  0  0  0
 20 22  1  0  0  0
 20 23  2  0  0  0
 21 23  1  0  0  0
 24 26  1  0  0  0
 25 26  1  0  0  0
M  END
> <s_m_entry_id>
838

> <s_m_entry_name>
10-myco-2_54_lig_gen_fit_add_gna.sdf.8

> <s_m_Source_Path>
C:\Users\maila\Downloads\mgr\myco-analysis

> <s_m_Source_File>
myco-10-var2-wzakresie.mae

> <i_m_Source_File_Index>
94

> <s_user_SMILES>
C1C(N)=NC=C1C(=C2/C=N/[H])C=C2NC[C@@H]3C=CC=C3CCC

> <minimizedAffinity>
-8.1018

> <minimizedRMSD>
0.96893

> <CNNscore>
0.522767067

> <CNNaffinity>
6.3519883156

> <CNN_VS>
3.3206102848

> <CNNaffinity_variance>
0.1386392564

$$$$
CCC1=CC(=CC1)NC2=CC=C(C2=3)C=C(C3)C4=NC=C4
                    3D
 Schrodinger Suite 2021-1.
 21 24  0  0  1  0            999 V2000
  -23.1770  -21.1972   11.2371 C   0  0  0  0  0  0
  -24.3408  -19.2267   11.2009 C   0  0  0  0  0  0
  -22.4137  -17.9099   12.2083 C   0  0  0  0  0  0
  -23.2995  -19.0412   12.0039 C   0  0  0  0  0  0
  -24.2893  -20.6393   10.7506 C   0  0  0  0  0  0
  -21.2353  -19.8982   12.1636 C   0  0  0  0  0  0
  -21.1851  -18.4294   12.3114 C   0  0  0  0  0  0
  -22.5110  -20.2116   12.0512 C   0  0  0  0  0  0
  -18.6912  -17.9099   12.2440 N   0  0  0  0  0  0
  -19.9523  -17.6412   12.3653 C   0  0  0  0  0  0
  -18.3527  -16.5376   12.4463 C   0  0  0  0  0  0
  -19.6313  -16.2403   12.5695 C   0  0  0  0  0  0
  -22.7263  -22.5363   11.0328 N   0  0  0  0  0  0
  -22.3677  -23.0385   11.8738 H   0  0  0  0  0  0
  -21.7370  -22.9074    7.5721 C   0  0  0  0  0  0
  -22.2239  -22.9571    9.7630 C   0  0  0  0  0  0
  -22.4940  -22.3198    8.4889 C   0  0  0  0  0  0
  -21.3370  -23.9270    9.6067 C   0  0  0  0  0  0
  -20.9103  -23.9981    8.1798 C   0  0  0  0  0  0
  -21.7388  -22.5753    6.1108 C   0  0  0  0  0  0
  -21.9480  -21.0834    5.8564 C   0  0  0  0  0  0
  1  5  2  0  0  0
  1 13  1  0  0  0
  1  8  1  0  0  0
  2  4  2  0  0  0
  2  5  1  0  0  0
  3  4  1  0  0  0
  3  7  2  0  0  0
  4  8  1  0  0  0
  6  7  1  0  0  0
  6  8  2  0  0  0
  7 10  1  0  0  0
  9 10  2  0  0  0
  9 11  1  0  0  0
 10 12  1  0  0  0
 11 12  2  0  0  0
 13 16  1  0  0  0
 13 14  1  0  0  0
 15 17  2  0  0  0
 15 20  1  0  0  0
 15 19  1  0  0  0
 16 17  1  0  0  0
 16 18  2  0  0  0
 18 19  1  0  0  0
 20 21  1  0  0  0
M  END
> <s_m_entry_id>
839

> <s_m_entry_name>
10-myco-2_54_lig_gen_fit_add_gna.sdf.9

> <s_m_Source_Path>
C:\Users\maila\Downloads\mgr\myco-analysis

> <s_m_Source_File>
myco-10-var2-wzakresie.mae

> <i_m_Source_File_Index>
95

> <s_user_SMILES>
CCC1=CC(=CC1)NC2=CC=C(C2=3)C=C(C3)C4=NC=C4

> <minimizedAffinity>
-9.09821

> <minimizedRMSD>
0.5162

> <CNNscore>
0.7698791027

> <CNNaffinity>
6.1873273849

> <CNN_VS>
4.7634940147

> <CNNaffinity_variance>
0.1528303623

$$$$
C1C=NC(C)=C1CC2=Cc(c23)ccc(c3)C(C4)=NC=C4N
                    3D
 Schrodinger Suite 2021-1.
 23 26  0  0  1  0            999 V2000
  -24.2652  -20.1465   11.0525 C   0  0  0  0  0  0
  -24.3413  -18.8299   11.4497 C   0  0  0  0  0  0
  -21.9908  -19.1006   12.1840 C   0  0  0  0  0  0
  -23.7935  -21.9818   10.4974 C   0  0  0  0  0  0
  -22.0226  -20.4808   11.8386 C   0  0  0  0  0  0
  -24.9125  -21.2620   10.3773 C   0  0  0  0  0  0
  -23.1754  -20.9072   11.2369 C   0  0  0  0  0  0
  -23.1455  -18.2929   11.9982 C   0  0  0  0  0  0
  -20.6954  -18.4873   12.4923 C   0  0  0  0  0  0
  -18.8484  -17.1664   12.4966 C   0  0  0  0  0  0
  -19.6551  -19.2355   12.4982 N   0  0  0  0  0  0
  -20.3332  -17.0220   12.4633 C   0  0  0  0  0  0
  -18.5202  -18.4243   12.4586 C   0  0  0  0  0  0
  -17.8826  -16.1343   12.5259 N   0  0  0  0  0  0
  -17.7921  -15.5927   13.4090 H   0  0  0  0  0  0
  -17.0131  -16.2623   11.9676 H   0  0  0  0  0  0
  -23.3083  -23.2764    9.9816 C   0  0  0  0  0  0
  -22.4588  -23.0627    8.7603 C   0  0  0  0  0  0
  -21.4501  -23.8253    8.3497 C   0  0  0  0  0  0
  -21.6445  -22.3589    6.7422 C   0  0  0  0  0  0
  -22.6883  -21.9949    7.7443 C   0  0  0  0  0  0
  -20.8881  -25.0059    9.0773 C   0  0  0  0  0  0
  -20.9461  -23.3864    7.0964 N   0  0  0  0  0  0
  1  2  2  0  0  0
  1  6  1  0  0  0
  1  7  1  0  0  0
  2  8  1  0  0  0
  3  9  1  0  0  0
  3  5  1  0  0  0
  3  8  2  0  0  0
  4  6  2  0  0  0
  4 17  1  0  0  0
  4  7  1  0  0  0
  5  7  2  0  0  0
  9 11  2  0  0  0
  9 12  1  0  0  0
 10 12  1  0  0  0
 10 13  2  0  0  0
 10 14  1  0  0  0
 11 13  1  0  0  0
 14 15  1  0  0  0
 14 16  1  0  0  0
 17 18  1  0  0  0
 18 19  2  0  0  0
 18 21  1  0  0  0
 19 22  1  0  0  0
 19 23  1  0  0  0
 20 21  1  0  0  0
 20 23  2  0  0  0
M  END
> <s_m_entry_id>
840

> <s_m_entry_name>
10-myco-2_54_lig_gen_fit_add_gna.sdf.10

> <s_m_Source_Path>
C:\Users\maila\Downloads\mgr\myco-analysis

> <s_m_Source_File>
myco-10-var2-wzakresie.mae

> <i_m_Source_File_Index>
96

> <s_user_SMILES>
C1C=NC(C)=C1CC2=Cc(c23)ccc(c3)C(C4)=NC=C4N

> <minimizedAffinity>
-9.12551

> <minimizedRMSD>
0.68941

> <CNNscore>
0.8246531487

> <CNNaffinity>
6.4969353676

> <CNN_VS>
5.3577179909

> <CNNaffinity_variance>
0.1314856708

$$$$
CO/C=C\c1cc(ccc1)[C@@]23[C@@H](C2)C4=C(C3=O)CN=C4
                    3D
 Schrodinger Suite 2021-1.
 20 23  0  0  1  0            999 V2000
  -22.2312   20.0750  -11.9557 C   0  0  0  0  0  0
  -24.0655   20.0705  -10.3180 C   0  0  0  0  0  0
  -22.4033   21.8390  -10.2895 C   0  0  0  0  0  0
  -21.7724   21.2844  -11.4125 C   0  0  0  0  0  0
  -23.4522   19.5535  -11.4618 C   0  0  0  0  0  0
  -23.5306   21.2244   -9.7264 C   0  0  0  0  0  0
  -19.1245   20.1869  -12.6099 O   0  0  0  0  0  0
  -21.6229   17.7717  -13.0372 C   0  0  1  0  0  0
  -19.8693   19.3326  -13.1435 C   0  0  0  0  0  0
  -18.4688   16.1976  -12.4297 N   0  0  0  0  0  0
  -20.2988   17.1522  -13.3427 C   0  0  0  0  0  0
  -21.3804   19.2986  -12.9881 C   0  0  2  0  0  0
  -19.3436   18.0327  -13.4740 C   0  0  0  0  0  0
  -22.1558   18.7096  -14.0946 C   0  0  0  0  0  0
  -19.7227   16.0117  -12.6655 C   0  0  0  0  0  0
  -18.0527   17.4698  -12.9888 C   0  0  0  0  0  0
  -25.2708   19.3677   -9.8108 C   0  0  0  0  0  0
  -25.4385   18.9150   -8.5635 C   0  0  0  0  0  0
  -24.4987   19.1339   -7.5565 O   0  0  0  0  0  0
  -24.7746   18.7899   -6.2020 C   0  0  0  0  0  0
  1  4  2  0  0  0
  1 12  1  0  0  0
  1  5  1  0  0  0
  2 17  1  0  0  0
  2  5  2  0  0  0
  2  6  1  0  0  0
  3  4  1  0  0  0
  3  6  2  0  0  0
  7  9  2  0  0  0
  8 11  1  0  0  0
  8 12  1  0  0  0
  8 14  1  0  0  0
  9 12  1  0  0  0
  9 13  1  0  0  0
 10 15  2  0  0  0
 10 16  1  0  0  0
 11 13  2  0  0  0
 11 15  1  0  0  0
 12 14  1  0  0  0
 13 16  1  0  0  0
 17 18  2  0  0  0
 18 19  1  0  0  0
 19 20  1  0  0  0
M  END
> <s_m_entry_id>
841

> <s_m_entry_name>
10-myco-2_55_lig_gen_fit_add_gna.sdf.7

> <s_m_Source_Path>
C:\Users\maila\Downloads\mgr\myco-analysis

> <s_m_Source_File>
myco-10-var2-wzakresie.mae

> <i_m_Source_File_Index>
97

> <s_user_SMILES>
CO/C=C\c1cc(ccc1)[C@@]23[C@@H](C2)C4=C(C3=O)CN=C4

> <minimizedAffinity>
-9.37244

> <minimizedRMSD>
0.81707

> <CNNscore>
0.8536027074

> <CNNaffinity>
6.3536429405

> <CNN_VS>
5.4234867096

> <CNNaffinity_variance>
0.1851023138

$$$$
c1cnccc1C(=O)CCc2cc(ccc2)OCC[C@@H](O)CCC
                    3D
 Schrodinger Suite 2021-1.
 25 26  0  0  1  0            999 V2000
  -24.3729   19.4854   -8.1234 C   0  0  0  0  0  0
  -23.5694   20.4371   -7.4839 C   0  0  0  0  0  0
  -23.7185   20.4053  -10.2786 C   0  0  0  0  0  0
  -24.4777   19.5055   -9.5217 C   0  0  0  0  0  0
  -22.9033   21.3439   -9.6295 C   0  0  0  0  0  0
  -22.8482   21.3720   -8.2332 C   0  0  0  0  0  0
  -23.7016   20.2565  -11.7715 C   0  0  0  0  0  0
  -22.9794   18.9557  -12.1769 C   0  0  0  0  0  0
  -21.1994   20.3139  -12.9988 O   0  0  0  0  0  0
  -21.5686   19.1586  -12.6674 C   0  0  0  0  0  0
  -19.2181   18.2779  -12.6204 C   0  0  0  0  0  0
  -18.3189   17.2134  -12.5890 C   0  0  0  0  0  0
  -18.7751   15.9397  -12.6728 N   0  0  0  0  0  0
  -20.0968   15.6620  -12.8055 C   0  0  0  0  0  0
  -20.5981   18.0321  -12.7533 C   0  0  0  0  0  0
  -21.0308   16.6995  -12.8584 C   0  0  0  0  0  0
  -25.0126   18.5131   -7.3463 O   0  0  0  0  0  0
  -26.1649   17.7733   -7.7512 C   0  0  0  0  0  0
  -26.9817   17.3206   -6.5409 C   0  0  0  0  0  0
  -26.2270   17.4253   -5.2005 C   0  0  1  0  0  0
  -26.4771   18.6656   -4.5963 O   0  0  0  0  0  0
  -25.7580   18.8157   -3.9282 H   0  0  0  0  0  0
  -26.5980   16.2764   -4.2446 C   0  0  0  0  0  0
  -27.8506   15.4728   -4.6345 C   0  0  0  0  0  0
  -29.0989   15.8848   -3.8729 C   0  0  0  0  0  0
  1  2  2  0  0  0
  1  4  1  0  0  0
  1 17  1  0  0  0
  2  6  1  0  0  0
  3  4  2  0  0  0
  3  5  1  0  0  0
  3  7  1  0  0  0
  5  6  2  0  0  0
  7  8  1  0  0  0
  8 10  1  0  0  0
  9 10  2  0  0  0
 10 15  1  0  0  0
 11 12  2  0  0  0
 11 15  1  0  0  0
 12 13  1  0  0  0
 13 14  2  0  0  0
 14 16  1  0  0  0
 15 16  2  0  0  0
 17 18  1  0  0  0
 18 19  1  0  0  0
 19 20  1  0  0  0
 20 23  1  0  0  0
 20 21  1  0  0  0
 21 22  1  0  0  0
 23 24  1  0  0  0
 24 25  1  0  0  0
M  END
> <s_m_entry_id>
842

> <s_m_entry_name>
10-myco-2_57_lig_gen_fit_add_gna.sdf.1

> <s_m_Source_Path>
C:\Users\maila\Downloads\mgr\myco-analysis

> <s_m_Source_File>
myco-10-var2-wzakresie.mae

> <i_m_Source_File_Index>
98

> <s_user_SMILES>
c1cnccc1C(=O)CCc2cc(ccc2)OCC[C@@H](O)CCC

> <minimizedAffinity>
-8.95793

> <minimizedRMSD>
1.0179

> <CNNscore>
0.9642189741

> <CNNaffinity>
6.5121369362

> <CNN_VS>
6.2791261673

> <CNNaffinity_variance>
0.0058279084

$$$$
NC(=O)CC#C[C@@H]1[C@H](C)[C@@H](O)[C@@H](O1)n(cn2)c(c23)ccnc3
                    3D
 Schrodinger Suite 2021-1.
 25 27  0  0  1  0            999 V2000
   10.7341   -3.9969    0.2992 C   0  0  2  0  0  0
   11.8533   -4.2846    2.4184 O   0  0  0  0  0  0
   12.5628   -5.1083   -0.4978 C   0  0  2  0  0  0
   12.1204   -5.9259    0.7167 C   0  0  2  0  0  0
   11.4610   -7.2773    0.3878 C   0  0  0  0  0  0
   11.5712   -4.1650   -0.8197 O   0  0  0  0  0  0
   11.1626   -4.9729    1.4058 C   0  0  2  0  0  0
   11.1851   -3.7240    2.8902 H   0  0  0  0  0  0
    8.2047   -3.8826    0.5533 C   0  0  0  0  0  0
    7.1367   -4.2942   -0.1884 C   0  0  0  0  0  0
    8.0408   -3.4140    1.8535 C   0  0  0  0  0  0
    5.6685   -3.7535    1.5704 N   0  0  0  0  0  0
    7.5467   -4.8880   -1.3176 N   0  0  0  0  0  0
    5.8427   -4.2296    0.3062 C   0  0  0  0  0  0
    8.8997   -4.7704   -1.2564 C   0  0  0  0  0  0
    6.7222   -3.3533    2.3462 C   0  0  0  0  0  0
    9.3372   -4.1790   -0.1154 N   0  0  0  0  0  0
   13.0795   -6.5017   -2.7173 C   0  0  0  0  0  0
   12.8761   -5.8887   -1.7008 C   0  0  0  0  0  0
   13.2878   -7.2159   -3.9759 C   0  0  0  0  0  0
   15.3376   -7.3940   -5.1873 O   0  0  0  0  0  0
   14.6010   -5.2183   -4.8358 N   0  0  0  0  0  0
   14.4591   -6.6329   -4.7036 C   0  0  0  0  0  0
   13.8803   -4.5706   -4.4492 H   0  0  0  0  0  0
   15.4351   -4.8159   -5.3180 H   0  0  0  0  0  0
  1  6  1  0  0  0
  1 17  1  0  0  0
  1  7  1  0  0  0
  2  7  1  0  0  0
  2  8  1  0  0  0
  3  4  1  0  0  0
  3  6  1  0  0  0
  3 19  1  0  0  0
  4  5  1  0  0  0
  4  7  1  0  0  0
  9 10  2  0  0  0
  9 11  1  0  0  0
  9 17  1  0  0  0
 10 13  1  0  0  0
 10 14  1  0  0  0
 11 16  2  0  0  0
 12 14  2  0  0  0
 12 16  1  0  0  0
 13 15  2  0  0  0
 15 17  1  0  0  0
 18 20  1  0  0  0
 18 19  3  0  0  0
 20 23  1  0  0  0
 21 23  2  0  0  0
 22 23  1  0  0  0
 22 24  1  0  0  0
 22 25  1  0  0  0
M  END
> <s_m_entry_id>
843

> <s_m_entry_name>
10-myco-2_58_lig_gen_fit_add_gna.sdf.1

> <s_m_Source_Path>
C:\Users\maila\Downloads\mgr\myco-analysis

> <s_m_Source_File>
myco-10-var2-wzakresie.mae

> <i_m_Source_File_Index>
99

> <s_user_SMILES>
NC(=O)CC#C[C@@H]1[C@H](C)[C@@H](O)[C@@H](O1)n(cn2)c(c23)ccnc3

> <minimizedAffinity>
-8.10463

> <minimizedRMSD>
0.77112

> <CNNscore>
0.8476344943

> <CNNaffinity>
6.0754752159

> <CNN_VS>
5.1497821808

> <CNNaffinity_variance>
0.0731163695

$$$$
C[C@H]1[C@@H](N2)[C@]12C#CC[C@@H](C3)O[C@H]([C@]3(C)O)n(cn4)c(c45)ccnc5N
                    3D
 Schrodinger Suite 2021-1.
 29 33  0  0  1  0            999 V2000
   13.9571   -6.6498    0.4576 O   0  0  0  0  0  0
   12.5135   -8.2118   -0.5461 C   0  0  0  0  0  0
   11.7927   -6.8593    1.4688 C   0  0  0  0  0  0
   12.5167   -6.4709   -2.1674 O   0  0  0  0  0  0
   12.5975   -6.8604    0.1569 C   0  0  1  0  0  0
   12.1587   -5.8463   -0.9472 C   0  0  2  0  0  0
   12.2514   -7.8512   -1.9988 C   0  0  1  0  0  0
   14.0277   -5.7920    0.9424 H   0  0  0  0  0  0
    8.7325   -4.4541   -0.8401 C   0  0  0  0  0  0
    6.3811   -3.7357   -0.7465 N   0  0  0  0  0  0
    9.9966   -4.5257   -0.3101 C   0  0  0  0  0  0
   10.2984   -3.8450    0.8661 C   0  0  0  0  0  0
    8.6088   -5.2847   -1.8761 N   0  0  0  0  0  0
    7.9918   -3.1133    0.9461 N   0  0  0  0  0  0
    9.2404   -3.1507    1.4976 C   0  0  0  0  0  0
    7.7094   -3.7451   -0.2225 C   0  0  0  0  0  0
   10.7206   -5.4427   -1.0061 N   0  0  0  0  0  0
    9.8457   -5.8226   -1.9794 C   0  0  0  0  0  0
    6.1293   -4.3008   -1.5861 H   0  0  0  0  0  0
    5.6331   -3.1816   -0.2777 H   0  0  0  0  0  0
   12.9755   -8.7318   -3.0407 C   0  0  0  0  0  0
   13.6518   -7.9888   -4.1137 C   0  0  0  0  0  0
   14.2385   -7.3378   -4.9450 C   0  0  0  0  0  0
   14.9613   -6.5129   -5.9234 C   0  0  2  0  0  0
   16.3824   -6.2736   -5.5064 C   0  0  2  0  0  0
   15.3374   -5.2025   -5.2652 C   0  0  1  0  0  0
   14.1936   -5.3007   -6.1915 N   0  0  1  0  0  0
   17.3440   -6.0414   -6.6762 C   0  0  0  0  0  0
   14.4825   -4.9757   -7.1432 H   0  0  0  0  0  0
  1  5  1  0  0  0
  1  8  1  0  0  0
  2  5  1  0  0  0
  2  7  1  0  0  0
  3  5  1  0  0  0
  4  6  1  0  0  0
  4  7  1  0  0  0
  5  6  1  0  0  0
  6 17  1  0  0  0
  7 21  1  0  0  0
  9 11  2  0  0  0
  9 13  1  0  0  0
  9 16  1  0  0  0
 10 16  1  0  0  0
 10 19  1  0  0  0
 10 20  1  0  0  0
 11 12  1  0  0  0
 11 17  1  0  0  0
 12 15  2  0  0  0
 13 18  2  0  0  0
 14 15  1  0  0  0
 14 16  2  0  0  0
 17 18  1  0  0  0
 21 22  1  0  0  0
 22 23  3  0  0  0
 23 24  1  0  0  0
 24 25  1  0  0  0
 24 26  1  0  0  0
 24 27  1  0  0  0
 25 26  1  0  0  0
 25 28  1  0  0  0
 26 27  1  0  0  0
 27 29  1  0  0  0
M  END
> <s_m_entry_id>
844

> <s_m_entry_name>
10-myco-2_58_lig_gen_fit_add_gna.sdf.6

> <s_m_Source_Path>
C:\Users\maila\Downloads\mgr\myco-analysis

> <s_m_Source_File>
myco-10-var2-wzakresie.mae

> <i_m_Source_File_Index>
100

> <s_user_SMILES>
C[C@H]1[C@@H](N2)[C@]12C#CC[C@@H](C3)O[C@H]([C@]3(C)O)n(cn4)c(c45)ccnc5N

> <minimizedAffinity>
-8.67585

> <minimizedRMSD>
0.94344

> <CNNscore>
0.7095983028

> <CNNaffinity>
6.1850528717

> <CNN_VS>
4.388903141

> <CNNaffinity_variance>
0.2443418801

$$$$
CN(C)C(=O)CCC[C@H]1[C@H](C12CO2)[C@@H](O)n3c(c34)nc5c4ccc5N
                    3D
 Schrodinger Suite 2021-1.
 28 32  0  0  1  0            999 V2000
  -24.6560  -22.0515   12.2630 O   0  0  0  0  0  0
  -24.4326  -20.9261   11.4662 C   0  0  1  0  0  0
  -23.8128  -22.2770   12.7408 H   0  0  0  0  0  0
  -20.5868  -19.0386   12.7094 C   0  0  0  0  0  0
  -21.7703  -18.0979   12.5399 C   0  0  0  0  0  0
  -19.9538  -16.9129   13.0691 C   0  0  0  0  0  0
  -19.5118  -18.2319   13.0093 C   0  0  0  0  0  0
  -20.6767  -20.4326   12.4775 N   0  0  0  0  0  0
  -21.9476  -20.2424   12.1967 C   0  0  0  0  0  0
  -18.1553  -18.6333   13.1365 N   0  0  0  0  0  0
  -23.2282  -20.2093   11.8863 N   0  0  0  0  0  0
  -21.3160  -16.8302   12.7859 C   0  0  0  0  0  0
  -22.5599  -19.1051   12.2038 C   0  0  0  0  0  0
  -17.4207  -17.9501   13.4342 H   0  0  0  0  0  0
  -17.8787  -19.6058   12.9155 H   0  0  0  0  0  0
  -23.4760  -22.3621    9.4526 C   0  0  1  0  0  0
  -23.4712  -20.9256    7.6746 O   0  0  0  0  0  0
  -24.4489  -21.3526    9.9814 C   0  0  2  0  0  0
  -23.2726  -20.8727    9.0866 C   0  0  3  0  0  0
  -23.9930  -19.8157    8.2903 C   0  0  0  0  0  0
  -22.3738  -22.9223   10.3655 C   0  0  0  0  0  0
  -21.0870  -23.2953    9.6043 C   0  0  0  0  0  0
  -21.1113  -24.7079    8.9936 C   0  0  0  0  0  0
  -20.7718  -25.6083   11.2057 O   0  0  0  0  0  0
  -21.1323  -25.8211   10.0153 C   0  0  0  0  0  0
  -22.5310  -27.8509   10.4187 C   0  0  0  0  0  0
  -20.8364  -27.7954    8.5082 C   0  0  0  0  0  0
  -21.5179  -27.1466    9.6305 N   0  0  0  0  0  0
  1  2  1  0  0  0
  1  3  1  0  0  0
  2 18  1  0  0  0
  2 11  1  0  0  0
  4  5  1  0  0  0
  4  7  1  0  0  0
  4  8  2  0  0  0
  5 12  2  0  0  0
  5 13  1  0  0  0
  6  7  2  0  0  0
  6 12  1  0  0  0
  7 10  1  0  0  0
  8  9  1  0  0  0
  9 11  1  0  0  0
  9 13  2  0  0  0
 10 14  1  0  0  0
 10 15  1  0  0  0
 11 13  1  0  0  0
 16 18  1  0  0  0
 16 21  1  0  0  0
 16 19  1  0  0  0
 17 19  1  0  0  0
 17 20  1  0  0  0
 18 19  1  0  0  0
 19 20  1  0  0  0
 21 22  1  0  0  0
 22 23  1  0  0  0
 23 25  1  0  0  0
 24 25  2  0  0  0
 25 28  1  0  0  0
 26 28  1  0  0  0
 27 28  1  0  0  0
M  END
> <s_m_entry_id>
845

> <s_m_entry_name>
10-myco-2_59_lig_gen_fit_add_gna.sdf.2

> <s_m_Source_Path>
C:\Users\maila\Downloads\mgr\myco-analysis

> <s_m_Source_File>
myco-10-var2-wzakresie.mae

> <i_m_Source_File_Index>
101

> <s_user_SMILES>
CN(C)C(=O)CCC[C@H]1[C@H](C12CO2)[C@@H](O)n3c(c34)nc5c4ccc5N

> <minimizedAffinity>
-8.81151

> <minimizedRMSD>
0.40781

> <CNNscore>
0.8475471735

> <CNNaffinity>
6.4235086441

> <CNN_VS>
5.4442267418

> <CNNaffinity_variance>
0.0530318134

$$$$
CC(C)[C@H]1[C@@H](CC1)N[C@@H](O)[C@]2(O)[C@H](O2)c3cnc(c34)c(N)nc[nH]4
                    3D
 Schrodinger Suite 2021-1.
 30 33  0  0  1  0            999 V2000
  -23.7561  -20.6379   11.0838 C   0  0  1  0  0  0
  -24.2481  -20.1005   12.2926 O   0  0  0  0  0  0
  -23.2980  -19.6057   10.2599 O   0  0  0  0  0  0
  -23.0847  -20.8941   12.3851 C   0  0  2  0  0  0
  -24.1118  -19.1513    9.9205 H   0  0  0  0  0  0
  -21.3706  -18.9443   12.7526 C   0  0  0  0  0  0
  -19.9556  -18.9052   12.6043 C   0  0  0  0  0  0
  -21.4095  -16.6302   12.8980 C   0  0  0  0  0  0
  -19.2910  -17.6930   12.6572 C   0  0  0  0  0  0
  -20.0444  -16.5756   12.8253 N   0  0  0  0  0  0
  -20.5754  -20.9019   12.1660 C   0  0  0  0  0  0
  -17.8781  -17.5933   12.4988 N   0  0  0  0  0  0
  -19.4908  -20.0907   12.2049 N   0  0  0  0  0  0
  -21.7497  -20.2390   12.4893 C   0  0  0  0  0  0
  -22.0908  -17.8111   12.8257 N   0  0  0  0  0  0
  -17.3958  -16.6765   12.6115 H   0  0  0  0  0  0
  -17.3103  -18.4242   12.2390 H   0  0  0  0  0  0
  -23.1301  -17.8273   12.7806 H   0  0  0  0  0  0
  -24.5546  -21.7816   10.4286 C   0  0  2  0  0  0
  -24.3767  -23.0032   11.0935 O   0  0  0  0  0  0
  -24.9627  -22.9833   11.8898 H   0  0  0  0  0  0
  -24.1891  -21.9363    9.0098 N   0  0  2  0  0  0
  -24.6008  -22.8270    8.6710 H   0  0  0  0  0  0
  -21.8384  -22.8499    6.9618 C   0  0  0  0  0  0
  -22.7410  -21.9076    8.6957 C   0  0  1  0  0  0
  -22.0845  -23.2768    8.4100 C   0  0  2  0  0  0
  -22.5492  -21.5349    7.2235 C   0  0  0  0  0  0
  -19.5946  -23.7521    8.2805 C   0  0  0  0  0  0
  -20.8076  -23.6078    9.2155 C   0  0  0  0  0  0
  -21.0036  -24.9256    9.9763 C   0  0  0  0  0  0
  1 19  1  0  0  0
  1  2  1  0  0  0
  1  3  1  0  0  0
  1  4  1  0  0  0
  2  4  1  0  0  0
  3  5  1  0  0  0
  4 14  1  0  0  0
  6  7  1  0  0  0
  6 14  2  0  0  0
  6 15  1  0  0  0
  7  9  2  0  0  0
  7 13  1  0  0  0
  8 10  2  0  0  0
  8 15  1  0  0  0
  9 10  1  0  0  0
  9 12  1  0  0  0
 11 13  2  0  0  0
 11 14  1  0  0  0
 12 16  1  0  0  0
 12 17  1  0  0  0
 15 18  1  0  0  0
 19 20  1  0  0  0
 19 22  1  0  0  0
 20 21  1  0  0  0
 22 25  1  0  0  0
 22 23  1  0  0  0
 24 26  1  0  0  0
 24 27  1  0  0  0
 25 26  1  0  0  0
 25 27  1  0  0  0
 26 29  1  0  0  0
 28 29  1  0  0  0
 29 30  1  0  0  0
M  END
> <s_m_entry_id>
846

> <s_m_entry_name>
10-myco-2_59_lig_gen_fit_add_gna.sdf.4

> <s_m_Source_Path>
C:\Users\maila\Downloads\mgr\myco-analysis

> <s_m_Source_File>
myco-10-var2-wzakresie.mae

> <i_m_Source_File_Index>
102

> <s_user_SMILES>
CC(C)[C@H]1[C@@H](CC1)N[C@@H](O)[C@]2(O)[C@H](O2)c3cnc(c34)c(N)nc[nH]4

> <minimizedAffinity>
-8.94286

> <minimizedRMSD>
0.51487

> <CNNscore>
0.8189957142

> <CNNaffinity>
6.3805198669

> <CNN_VS>
5.2256183624

> <CNNaffinity_variance>
0.0232194476

$$$$
C1CC1(O)CC[C@H](C2(O)O)O[C@H]2n(cn3)c(c34)ncnc4N
                    3D
 Schrodinger Suite 2021-1.
 27 30  0  0  1  0            999 V2000
  -24.9897  -18.8390   11.9909 O   0  0  0  0  0  0
  -23.8469  -19.5470   11.5766 C   0  0  0  0  0  0
  -22.9521  -21.1936   12.5946 O   0  0  0  0  0  0
  -23.3706  -19.0397   10.3652 O   0  0  0  0  0  0
  -23.9985  -21.0702   11.6542 C   0  0  2  0  0  0
  -22.8167  -19.7853   12.6894 C   0  0  1  0  0  0
  -25.2349  -19.1339   12.9042 H   0  0  0  0  0  0
  -22.6406  -19.6163   10.0647 H   0  0  0  0  0  0
  -20.8991  -18.1228   12.5899 C   0  0  0  0  0  0
  -19.5489  -18.2110   12.5641 C   0  0  0  0  0  0
  -19.3919  -15.8950   12.7661 N   0  0  0  0  0  0
  -18.7598  -17.0892   12.6964 C   0  0  0  0  0  0
  -21.5339  -16.9295   12.6749 N   0  0  0  0  0  0
  -20.7504  -15.8041   12.7412 C   0  0  0  0  0  0
  -20.3369  -20.1536   12.4309 C   0  0  0  0  0  0
  -19.1650  -19.4756   12.4317 N   0  0  0  0  0  0
  -17.3437  -17.1707   12.8263 N   0  0  0  0  0  0
  -21.4334  -19.3547   12.4745 N   0  0  0  0  0  0
  -16.7680  -16.3043   12.8951 H   0  0  0  0  0  0
  -16.8889  -18.0905   12.9990 H   0  0  0  0  0  0
  -23.8405  -21.9805   10.4042 C   0  0  0  0  0  0
  -22.4574  -22.0099    9.7076 C   0  0  0  0  0  0
  -20.3464  -23.4246    9.1760 C   0  0  0  0  0  0
  -21.5057  -24.1856    8.5503 C   0  0  0  0  0  0
  -21.7277  -23.3634    9.8112 C   0  0  0  0  0  0
  -21.8253  -24.1042   10.9967 O   0  0  0  0  0  0
  -21.4680  -23.5182   11.7104 H   0  0  0  0  0  0
  1  2  1  0  0  0
  1  7  1  0  0  0
  2  4  1  0  0  0
  2  5  1  0  0  0
  2  6  1  0  0  0
  3  5  1  0  0  0
  3  6  1  0  0  0
  4  8  1  0  0  0
  5 21  1  0  0  0
  6 18  1  0  0  0
  9 10  2  0  0  0
  9 13  1  0  0  0
  9 18  1  0  0  0
 10 12  1  0  0  0
 10 16  1  0  0  0
 11 12  2  0  0  0
 11 14  1  0  0  0
 12 17  1  0  0  0
 13 14  2  0  0  0
 15 16  2  0  0  0
 15 18  1  0  0  0
 17 19  1  0  0  0
 17 20  1  0  0  0
 21 22  1  0  0  0
 22 25  1  0  0  0
 23 24  1  0  0  0
 23 25  1  0  0  0
 24 25  1  0  0  0
 25 26  1  0  0  0
 26 27  1  0  0  0
M  END
> <s_m_entry_id>
847

> <s_m_entry_name>
10-myco-2_59_lig_gen_fit_add_gna.sdf.5

> <s_m_Source_Path>
C:\Users\maila\Downloads\mgr\myco-analysis

> <s_m_Source_File>
myco-10-var2-wzakresie.mae

> <i_m_Source_File_Index>
103

> <s_user_SMILES>
C1CC1(O)CC[C@H](C2(O)O)O[C@H]2n(cn3)c(c34)ncnc4N

> <minimizedAffinity>
-9.66397

> <minimizedRMSD>
0.67063

> <CNNscore>
0.9767974019

> <CNNaffinity>
6.058473587

> <CNN_VS>
5.9179010391

> <CNNaffinity_variance>
0.1766709387

$$$$
CCCCCC[C@H](C1(O)O)O[C@H]1n(cn2)c(c23)ncnc3N
                    3D
 Schrodinger Suite 2021-1.
 26 28  0  0  1  0            999 V2000
  -24.9429  -18.8470   11.8965 O   0  0  0  0  0  0
  -23.1837  -19.1155   10.3791 O   0  0  0  0  0  0
  -22.8329  -19.7489   12.7424 C   0  0  2  0  0  0
  -22.9859  -21.1550   12.7185 O   0  0  0  0  0  0
  -23.7762  -19.5540   11.5658 C   0  0  0  0  0  0
  -23.9419  -21.0613   11.6849 C   0  0  1  0  0  0
  -24.6516  -17.9286   12.1309 H   0  0  0  0  0  0
  -23.8987  -19.1202    9.6913 H   0  0  0  0  0  0
  -18.7697  -17.0780   12.5982 C   0  0  0  0  0  0
  -20.9011  -18.1226   12.6620 C   0  0  0  0  0  0
  -20.7598  -15.8019   12.7509 C   0  0  0  0  0  0
  -20.3568  -20.1590   12.4470 C   0  0  0  0  0  0
  -17.3537  -17.1288   12.5009 N   0  0  0  0  0  0
  -19.1794  -19.4845   12.4020 N   0  0  0  0  0  0
  -19.5543  -18.2137   12.5659 C   0  0  0  0  0  0
  -21.4392  -19.3493   12.5625 N   0  0  0  0  0  0
  -21.5388  -16.9295   12.7422 N   0  0  0  0  0  0
  -19.4036  -15.8866   12.6895 N   0  0  0  0  0  0
  -16.7824  -16.2850   12.7142 H   0  0  0  0  0  0
  -16.8890  -17.9736   12.1213 H   0  0  0  0  0  0
  -23.6230  -21.9428   10.4564 C   0  0  0  0  0  0
  -22.5982  -23.0711   10.6842 C   0  0  0  0  0  0
  -21.2644  -22.8285    9.9428 C   0  0  0  0  0  0
  -20.7446  -24.0605    9.1824 C   0  0  0  0  0  0
  -21.3466  -26.4959    8.9299 C   0  0  0  0  0  0
  -21.0414  -25.3709    9.9149 C   0  0  0  0  0  0
  1  5  1  0  0  0
  1  7  1  0  0  0
  2  5  1  0  0  0
  2  8  1  0  0  0
  3  4  1  0  0  0
  3  5  1  0  0  0
  3 16  1  0  0  0
  4  6  1  0  0  0
  5  6  1  0  0  0
  6 21  1  0  0  0
  9 13  1  0  0  0
  9 15  2  0  0  0
  9 18  1  0  0  0
 10 15  1  0  0  0
 10 16  1  0  0  0
 10 17  2  0  0  0
 11 17  1  0  0  0
 11 18  2  0  0  0
 12 14  2  0  0  0
 12 16  1  0  0  0
 13 19  1  0  0  0
 13 20  1  0  0  0
 14 15  1  0  0  0
 21 22  1  0  0  0
 22 23  1  0  0  0
 23 24  1  0  0  0
 24 26  1  0  0  0
 25 26  1  0  0  0
M  END
> <s_m_entry_id>
848

> <s_m_entry_name>
10-myco-2_59_lig_gen_fit_add_gna.sdf.6

> <s_m_Source_Path>
C:\Users\maila\Downloads\mgr\myco-analysis

> <s_m_Source_File>
myco-10-var2-wzakresie.mae

> <i_m_Source_File_Index>
104

> <s_user_SMILES>
CCCCCC[C@H](C1(O)O)O[C@H]1n(cn2)c(c23)ncnc3N

> <minimizedAffinity>
-8.652

> <minimizedRMSD>
0.78437

> <CNNscore>
0.9542334676

> <CNNaffinity>
6.200261116

> <CNN_VS>
5.9164967537

> <CNNaffinity_variance>
0.146738857

$$$$
C[C@]12[C@H](C1)[C@@H]3[C@H](C2)[C@H]3C[C@@H]4C(O)(O)C45c6n5c7c(n6)c(N)ncn7
                    3D
 Schrodinger Suite 2021-1.
 28 34  0  0  1  0            999 V2000
  -19.7845  -16.9339   13.2347 N   0  0  0  0  0  0
  -19.4897  -18.2605   13.1469 C   0  0  0  0  0  0
  -21.8427  -18.5506   12.5866 C   0  0  0  0  0  0
  -24.1003  -20.9123   11.3115 C   0  0  0  0  0  0
  -24.7684  -20.1287   12.2602 O   0  0  0  0  0  0
  -21.0138  -16.4191   12.9443 C   0  0  0  0  0  0
  -24.7956  -21.2070   10.1323 O   0  0  0  0  0  0
  -20.5067  -19.1595   12.7934 C   0  0  0  0  0  0
  -18.1244  -18.6601   13.2290 N   0  0  0  0  0  0
  -23.0806  -21.8708   11.7989 C   0  0  2  0  0  0
  -21.4278  -20.4778   11.7269 C   0  0  0  0  0  0
  -20.2609  -20.4951   12.3060 N   0  0  0  0  0  0
  -22.3484  -19.4577   11.8127 N   0  0  0  0  0  0
  -22.0431  -17.2222   12.5473 N   0  0  0  0  0  0
  -22.6173  -20.5838   11.0628 C   0  0  3  0  0  0
  -25.0738  -19.3188   11.7758 H   0  0  0  0  0  0
  -25.5582  -21.7727   10.4090 H   0  0  0  0  0  0
  -17.7977  -19.5323   12.7709 H   0  0  0  0  0  0
  -17.4052  -17.9916   13.5850 H   0  0  0  0  0  0
  -22.8816  -23.1779   10.9933 C   0  0  0  0  0  0
  -19.8669  -25.3288    7.4886 C   0  0  0  0  0  0
  -19.9908  -24.8153    8.9184 C   0  0  2  0  0  0
  -18.1957  -23.3329    7.8431 C   0  0  0  0  0  0
  -21.6279  -23.1870   10.0832 C   0  0  1  0  0  0
  -21.4106  -24.5167    9.3695 C   0  0  1  0  0  0
  -20.8073  -22.8917    7.6192 C   0  0  0  0  0  0
  -21.9096  -23.3089    8.5859 C   0  0  2  0  0  0
  -19.6348  -23.8535    7.8053 C   0  0  1  0  0  0
  1  2  2  0  0  0
  1  6  1  0  0  0
  2  8  1  0  0  0
  2  9  1  0  0  0
  3  8  2  0  0  0
  3 13  1  0  0  0
  3 14  1  0  0  0
  4  5  1  0  0  0
  4  7  1  0  0  0
  4 10  1  0  0  0
  4 15  1  0  0  0
  5 16  1  0  0  0
  6 14  2  0  0  0
  7 17  1  0  0  0
  8 12  1  0  0  0
  9 18  1  0  0  0
  9 19  1  0  0  0
 10 20  1  0  0  0
 10 15  1  0  0  0
 11 12  2  0  0  0
 11 13  1  0  0  0
 11 15  1  0  0  0
 13 15  1  0  0  0
 20 24  1  0  0  0
 21 22  1  0  0  0
 21 28  1  0  0  0
 22 25  1  0  0  0
 22 28  1  0  0  0
 23 28  1  0  0  0
 24 25  1  0  0  0
 24 27  1  0  0  0
 25 27  1  0  0  0
 26 27  1  0  0  0
 26 28  1  0  0  0
M  END
> <s_m_entry_id>
849

> <s_m_entry_name>
10-myco-2_59_lig_gen_fit_add_gna.sdf.9

> <s_m_Source_Path>
C:\Users\maila\Downloads\mgr\myco-analysis

> <s_m_Source_File>
myco-10-var2-wzakresie.mae

> <i_m_Source_File_Index>
105

> <s_user_SMILES>
C[C@]12[C@H](C1)[C@@H]3[C@H](C2)[C@H]3C[C@@H]4C(O)(O)C45c6n5c7c(n6)c(N)ncn7

> <minimizedAffinity>
-9.21912

> <minimizedRMSD>
0.39044

> <CNNscore>
0.6842041612

> <CNNaffinity>
6.2928714752

> <CNN_VS>
4.3056087494

> <CNNaffinity_variance>
0.0884243697

$$$$
Nc1ncnc(c12)n(cn2)C(=O)[C@H](O)[C@H](O)CC/C=C/C3=C(N)C=C3
                    3D
 Schrodinger Suite 2021-1.
 31 33  0  0  1  0            999 V2000
  -23.5477  -19.7852   10.4715 C   0  0  1  0  0  0
  -24.4685  -18.9159    9.8681 O   0  0  0  0  0  0
  -24.1814  -18.7945    8.9261 H   0  0  0  0  0  0
  -19.7953  -18.2013   12.6132 C   0  0  0  0  0  0
  -24.0507  -18.7015   12.5323 O   0  0  0  0  0  0
  -17.4877  -17.4174   12.9704 N   0  0  0  0  0  0
  -19.5846  -19.5203   12.5342 N   0  0  0  0  0  0
  -21.1082  -17.9283   12.4542 C   0  0  0  0  0  0
  -21.5892  -16.6663   12.4881 N   0  0  0  0  0  0
  -18.8830  -17.1741   12.8092 C   0  0  0  0  0  0
  -21.7824  -19.0660   12.2276 N   0  0  0  0  0  0
  -20.8301  -20.0212   12.3431 C   0  0  0  0  0  0
  -20.7035  -15.6448   12.6971 C   0  0  0  0  0  0
  -19.3696  -15.9042   12.8486 N   0  0  0  0  0  0
  -23.1516  -19.2268   11.8274 C   0  0  0  0  0  0
  -16.8296  -16.6231   13.1338 H   0  0  0  0  0  0
  -17.1093  -18.3868   12.9280 H   0  0  0  0  0  0
  -25.5140  -21.1811   10.5500 O   0  0  0  0  0  0
  -24.1117  -21.2300   10.4464 C   0  0  2  0  0  0
  -25.7425  -20.7897   11.4321 H   0  0  0  0  0  0
  -23.5155  -22.1466   11.5452 C   0  0  0  0  0  0
  -22.5629  -23.2522   11.0194 C   0  0  0  0  0  0
  -21.6148  -22.8396    9.9222 C   0  0  0  0  0  0
  -21.6668  -23.3845    8.7084 C   0  0  0  0  0  0
  -20.7202  -23.0733    7.6292 C   0  0  0  0  0  0
  -19.4306  -23.2558    7.3476 C   0  0  0  0  0  0
  -20.8930  -22.3843    6.3547 C   0  0  0  0  0  0
  -18.3021  -23.8438    7.9899 N   0  0  0  0  0  0
  -19.6248  -22.6053    6.0573 C   0  0  0  0  0  0
  -18.3667  -24.2390    8.9498 H   0  0  0  0  0  0
  -17.3795  -23.8555    7.5026 H   0  0  0  0  0  0
  1  2  1  0  0  0
  1 19  1  0  0  0
  1 15  1  0  0  0
  2  3  1  0  0  0
  4  7  1  0  0  0
  4  8  2  0  0  0
  4 10  1  0  0  0
  5 15  2  0  0  0
  6 10  1  0  0  0
  6 16  1  0  0  0
  6 17  1  0  0  0
  7 12  2  0  0  0
  8  9  1  0  0  0
  8 11  1  0  0  0
  9 13  2  0  0  0
 10 14  2  0  0  0
 11 12  1  0  0  0
 11 15  1  0  0  0
 13 14  1  0  0  0
 18 19  1  0  0  0
 18 20  1  0  0  0
 19 21  1  0  0  0
 21 22  1  0  0  0
 22 23  1  0  0  0
 23 24  2  0  0  0
 24 25  1  0  0  0
 25 26  2  0  0  0
 25 27  1  0  0  0
 26 28  1  0  0  0
 26 29  1  0  0  0
 27 29  2  0  0  0
 28 30  1  0  0  0
 28 31  1  0  0  0
M  END
> <s_m_entry_id>
850

> <s_m_entry_name>
10-myco-2_60_lig_gen_fit_add_gna.sdf.1

> <s_m_Source_Path>
C:\Users\maila\Downloads\mgr\myco-analysis

> <s_m_Source_File>
myco-10-var2-wzakresie.mae

> <i_m_Source_File_Index>
106

> <s_user_SMILES>
Nc1ncnc(c12)n(cn2)C(=O)[C@H](O)[C@H](O)CC/C=C/C3=C(N)C=C3

> <minimizedAffinity>
-9.17009

> <minimizedRMSD>
1.09708

> <CNNscore>
0.9456268549

> <CNNaffinity>
6.3925142288

> <CNN_VS>
6.0449333191

> <CNNaffinity_variance>
0.1817430556

$$$$
C1CC1(C234)[C@]2(C)[C@@H]4[C@@]3(O)C[C@]5(O)[C@@H](O5)On(cn6)c(c67)ncnc7N
                    3D
 Schrodinger Suite 2021-1.
 29 35  0  0  1  0            999 V2000
  -25.0273  -22.3081   10.0107 O   0  0  0  0  0  0
  -23.9197  -21.5648   10.4211 C   0  0  1  0  0  0
  -24.1871  -20.4309   11.3483 C   0  0  1  0  0  0
  -23.7144  -21.6715   11.8155 O   0  0  0  0  0  0
  -24.7964  -23.2553   10.1894 H   0  0  0  0  0  0
  -22.6295  -21.5883    9.5977 C   0  0  0  0  0  0
  -21.7779  -23.1928    6.2626 C   0  0  2  0  0  0
  -22.7820  -21.8130    8.0852 C   0  0  1  0  0  0
  -22.5417  -23.2077    7.5730 C   0  0  2  0  0  0
  -20.6938  -24.2789    6.2145 C   0  0  0  0  0  0
  -22.2786  -21.4077    4.8141 C   0  0  0  0  0  0
  -23.8367  -21.1803    7.4195 O   0  0  0  0  0  0
  -21.4760  -22.1511    7.3276 C   0  0  3  0  0  0
  -21.1895  -21.8473    5.8237 C   0  0  0  0  0  0
  -21.5926  -20.3699    5.6056 C   0  0  0  0  0  0
  -23.9363  -20.2803    7.8240 H   0  0  0  0  0  0
  -23.2289  -19.3650   11.3766 O   0  0  0  0  0  0
  -20.0699  -18.5751   12.7111 C   0  0  0  0  0  0
  -21.3324  -18.2612   12.3589 C   0  0  0  0  0  0
  -20.9334  -15.9986   12.7317 C   0  0  0  0  0  0
  -17.8487  -17.8607   13.4943 N   0  0  0  0  0  0
  -19.6480  -16.2980   13.0916 N   0  0  0  0  0  0
  -19.1853  -17.5775   13.0920 C   0  0  0  0  0  0
  -19.8732  -19.8961   12.6042 N   0  0  0  0  0  0
  -21.7910  -16.9910   12.3532 N   0  0  0  0  0  0
  -21.0834  -20.3593   12.1982 C   0  0  0  0  0  0
  -21.9934  -19.3652   12.0064 N   0  0  0  0  0  0
  -17.5042  -18.8423   13.5266 H   0  0  0  0  0  0
  -17.2113  -17.0874   13.7885 H   0  0  0  0  0  0
  1  2  1  0  0  0
  1  5  1  0  0  0
  2  6  1  0  0  0
  2  3  1  0  0  0
  2  4  1  0  0  0
  3 17  1  0  0  0
  3  4  1  0  0  0
  6  8  1  0  0  0
  7  9  1  0  0  0
  7 10  1  0  0  0
  7 13  1  0  0  0
  7 14  1  0  0  0
  8  9  1  0  0  0
  8 12  1  0  0  0
  8 13  1  0  0  0
  9 13  1  0  0  0
 11 14  1  0  0  0
 11 15  1  0  0  0
 12 16  1  0  0  0
 13 14  1  0  0  0
 14 15  1  0  0  0
 17 27  1  0  0  0
 18 19  2  0  0  0
 18 23  1  0  0  0
 18 24  1  0  0  0
 19 25  1  0  0  0
 19 27  1  0  0  0
 20 22  1  0  0  0
 20 25  2  0  0  0
 21 23  1  0  0  0
 21 28  1  0  0  0
 21 29  1  0  0  0
 22 23  2  0  0  0
 24 26  2  0  0  0
 26 27  1  0  0  0
M  END
> <s_m_entry_id>
851

> <s_m_entry_name>
10-myco-2_60_lig_gen_fit_add_gna.sdf.8

> <s_m_Source_Path>
C:\Users\maila\Downloads\mgr\myco-analysis

> <s_m_Source_File>
myco-10-var2-wzakresie.mae

> <i_m_Source_File_Index>
107

> <s_user_SMILES>
C1CC1(C234)[C@]2(C)[C@@H]4[C@@]3(O)C[C@]5(O)[C@@H](O5)On(cn6)c(c67)ncnc7N

> <minimizedAffinity>
-9.58101

> <minimizedRMSD>
0.71634

> <CNNscore>
0.8627380729

> <CNNaffinity>
6.2050566673

> <CNN_VS>
5.3533387184

> <CNNaffinity_variance>
0.1407449543

$$$$
c1cnc(N)c(c12)N=CC/2=C(O)\[C@@H]3[C@@H]([C@@H]34)CN5[C@@H]4[C@@H]5[C@@H]6[C@H](O7)[C@@H]67
                    3D
 Schrodinger Suite 2021-1.
 26 32  0  0  1  0            999 V2000
  -19.3623  -15.8817   12.8704 N   0  0  0  0  0  0
  -21.0651  -17.9974   12.5130 C   0  0  0  0  0  0
  -19.7083  -18.1721   12.4871 C   0  0  0  0  0  0
  -17.4218  -17.2705   12.6401 N   0  0  0  0  0  0
  -20.4801  -20.1971   12.3541 C   0  0  0  0  0  0
  -21.6056  -16.7456   12.7685 C   0  0  0  0  0  0
  -18.8336  -17.1072   12.6616 C   0  0  0  0  0  0
  -19.3696  -19.5286   12.3517 N   0  0  0  0  0  0
  -22.8327  -19.7031   11.8257 C   0  0  0  0  0  0
  -23.6792  -18.7773   11.2165 O   0  0  0  0  0  0
  -21.6608  -19.3346   12.3724 C   0  0  0  0  0  0
  -20.7017  -15.6757   12.9216 C   0  0  0  0  0  0
  -16.8021  -16.4954   12.9575 H   0  0  0  0  0  0
  -16.9944  -18.1123   12.2126 H   0  0  0  0  0  0
  -23.3958  -17.8293   11.0148 H   0  0  0  0  0  0
  -23.0640  -22.4295   11.5049 C   0  0  2  0  0  0
  -24.3356  -21.6852   11.0922 C   0  0  1  0  0  0
  -23.3816  -21.0697   12.1117 C   0  0  2  0  0  0
  -22.2841  -22.6584   10.2312 C   0  0  0  0  0  0
  -23.1869  -22.4829    9.1070 N   0  0  2  0  0  0
  -23.2136  -21.0738    8.6893 C   0  0  2  0  0  0
  -24.2863  -21.5971    9.5511 C   0  0  2  0  0  0
  -22.2409  -21.2203    6.3485 C   0  0  2  0  0  0
  -23.4872  -21.0793    7.1839 C   0  0  2  0  0  0
  -21.6544  -19.9925    6.0226 O   0  0  0  0  0  0
  -23.0168  -19.9185    6.3499 C   0  0  1  0  0  0
  1  7  2  0  0  0
  1 12  1  0  0  0
  2  3  2  0  0  0
  2  6  1  0  0  0
  2 11  1  0  0  0
  3  7  1  0  0  0
  3  8  1  0  0  0
  4  7  1  0  0  0
  4 13  1  0  0  0
  4 14  1  0  0  0
  5  8  2  0  0  0
  5 11  1  0  0  0
  6 12  2  0  0  0
  9 10  1  0  0  0
  9 11  2  0  0  0
  9 18  1  0  0  0
 10 15  1  0  0  0
 16 17  1  0  0  0
 16 18  1  0  0  0
 16 19  1  0  0  0
 17 18  1  0  0  0
 17 22  1  0  0  0
 19 20  1  0  0  0
 20 21  1  0  0  0
 20 22  1  0  0  0
 21 24  1  0  0  0
 21 22  1  0  0  0
 23 24  1  0  0  0
 23 25  1  0  0  0
 23 26  1  0  0  0
 24 26  1  0  0  0
 25 26  1  0  0  0
M  END
> <s_m_entry_id>
852

> <s_m_entry_name>
10-myco-2_60_lig_gen_fit_add_gna.sdf.9

> <s_m_Source_Path>
C:\Users\maila\Downloads\mgr\myco-analysis

> <s_m_Source_File>
myco-10-var2-wzakresie.mae

> <i_m_Source_File_Index>
108

> <s_user_SMILES>
c1cnc(N)c(c12)N=CC/2=C(O)\[C@@H]3[C@@H]([C@@H]34)CN5[C@@H]4[C@@H]5[C@@H]6[C@H](O7)[C@@H]67

> <minimizedAffinity>
-10.25472

> <minimizedRMSD>
0.6531

> <CNNscore>
0.9831744432

> <CNNaffinity>
6.9111642838

> <CNN_VS>
6.7948799133

> <CNNaffinity_variance>
0.0343905464

$$$$
NC[C@@H](O)C#CCO[C@H](C(O)O)n(cn1)c(c12)ccnc2N
                    3D
 Schrodinger Suite 2021-1.
 29 30  0  0  1  0            999 V2000
  -22.8744  -19.7922   12.6100 C   0  0  1  0  0  0
  -19.5981  -18.2146   12.5860 C   0  0  0  0  0  0
  -20.9489  -18.1420   12.7496 C   0  0  0  0  0  0
  -20.8020  -15.7779   12.8200 C   0  0  0  0  0  0
  -21.6011  -16.9269   12.8460 C   0  0  0  0  0  0
  -20.4062  -20.1595   12.3579 C   0  0  0  0  0  0
  -19.4454  -15.8613   12.6717 N   0  0  0  0  0  0
  -21.4733  -19.3703   12.6197 N   0  0  0  0  0  0
  -18.8144  -17.0616   12.5433 C   0  0  0  0  0  0
  -19.2366  -19.4752   12.2951 N   0  0  0  0  0  0
  -17.4029  -17.1115   12.3505 N   0  0  0  0  0  0
  -16.8425  -16.2314   12.3196 H   0  0  0  0  0  0
  -16.9124  -18.0228   12.2489 H   0  0  0  0  0  0
  -25.0014  -18.8752   11.8132 O   0  0  0  0  0  0
  -23.6393  -18.9991   11.4902 C   0  0  0  0  0  0
  -23.5161  -19.5887   10.2195 O   0  0  0  0  0  0
  -25.4150  -19.7728   11.7245 H   0  0  0  0  0  0
  -23.8002  -20.5350   10.3014 H   0  0  0  0  0  0
  -22.8663  -21.2216   12.5856 O   0  0  0  0  0  0
  -23.5505  -21.8720   11.5426 C   0  0  0  0  0  0
  -22.6500  -22.6989   10.7286 C   0  0  0  0  0  0
  -21.8938  -23.3417   10.0450 C   0  0  0  0  0  0
  -19.9384  -23.2304    8.7316 O   0  0  0  0  0  0
  -20.9460  -24.0880    9.2046 C   0  0  2  0  0  0
  -20.3679  -22.5536    8.1455 H   0  0  0  0  0  0
  -21.6961  -24.7759    8.0463 C   0  0  0  0  0  0
  -21.2419  -26.1509    7.8458 N   0  0  0  0  0  0
  -20.2296  -26.1415    7.5837 H   0  0  0  0  0  0
  -21.3367  -26.6754    8.7458 H   0  0  0  0  0  0
  1 15  1  0  0  0
  1  8  1  0  0  0
  1 19  1  0  0  0
  2  3  2  0  0  0
  2  9  1  0  0  0
  2 10  1  0  0  0
  3  5  1  0  0  0
  3  8  1  0  0  0
  4  5  2  0  0  0
  4  7  1  0  0  0
  6  8  1  0  0  0
  6 10  2  0  0  0
  7  9  2  0  0  0
  9 11  1  0  0  0
 11 12  1  0  0  0
 11 13  1  0  0  0
 14 15  1  0  0  0
 14 17  1  0  0  0
 15 16  1  0  0  0
 16 18  1  0  0  0
 19 20  1  0  0  0
 20 21  1  0  0  0
 21 22  3  0  0  0
 22 24  1  0  0  0
 23 24  1  0  0  0
 23 25  1  0  0  0
 24 26  1  0  0  0
 26 27  1  0  0  0
 27 28  1  0  0  0
 27 29  1  0  0  0
M  END
> <s_m_entry_id>
853

> <s_m_entry_name>
10-myco-2_60_lig_gen_fit_add_gna.sdf.10

> <s_m_Source_Path>
C:\Users\maila\Downloads\mgr\myco-analysis

> <s_m_Source_File>
myco-10-var2-wzakresie.mae

> <i_m_Source_File_Index>
109

> <s_user_SMILES>
NC[C@@H](O)C#CCO[C@H](C(O)O)n(cn1)c(c12)ccnc2N

> <minimizedAffinity>
-8.56759

> <minimizedRMSD>
1.81649

> <CNNscore>
0.9898720384

> <CNNaffinity>
6.070145607

> <CNN_VS>
6.008667469

> <CNNaffinity_variance>
0.0398124047

$$$$
CC(=O)C(=N/[H])\C#CCC[C@H](C1=O)O[C@H]([C@@H]1O)n(cn2)c(c23)ncnc3N
                    3D
 Schrodinger Suite 2021-1.
 30 32  0  0  1  0            999 V2000
    7.0307  -16.8983   -8.7241 O   0  0  0  0  0  0
    7.3150  -16.8852  -11.5347 O   0  0  0  0  0  0
    4.0254  -16.5912  -10.4133 O   0  0  0  0  0  0
    6.1143  -17.4915   -9.5991 C   0  0  1  0  0  0
    4.6746  -17.0968   -9.2542 C   0  0  2  0  0  0
    6.2658  -16.9050  -10.9138 C   0  0  0  0  0  0
    5.0308  -16.2299  -11.3353 C   0  0  1  0  0  0
    6.8249  -17.2674   -7.8315 H   0  0  0  0  0  0
    2.5205  -20.0114   -8.5779 N   0  0  0  0  0  0
    2.4647  -21.9122   -6.2622 N   0  0  0  0  0  0
    4.1803  -18.9322   -7.5907 C   0  0  0  0  0  0
    3.3758  -20.8356   -6.4250 C   0  0  0  0  0  0
    4.3389  -20.6151   -5.4960 N   0  0  0  0  0  0
    5.2304  -19.5932   -5.6242 C   0  0  0  0  0  0
    5.1547  -18.7218   -6.6750 N   0  0  0  0  0  0
    2.9296  -18.9281   -9.2953 C   0  0  0  0  0  0
    3.9404  -18.2399   -8.7125 N   0  0  0  0  0  0
    3.3224  -19.9749   -7.5073 C   0  0  0  0  0  0
    2.3265  -22.3240   -5.3165 H   0  0  0  0  0  0
    1.9902  -22.3403   -7.0810 H   0  0  0  0  0  0
    4.6344  -16.5452  -12.7850 C   0  0  0  0  0  0
    3.7556  -17.7795  -13.0179 C   0  0  0  0  0  0
    4.5441  -19.0004  -13.2248 C   0  0  0  0  0  0
    5.2258  -19.9697  -13.4496 C   0  0  0  0  0  0
    6.0605  -21.1032  -13.7593 C   0  0  0  0  0  0
    5.5728  -22.0358  -14.5152 N   0  0  0  0  0  0
    6.1148  -22.8870  -14.7846 H   0  0  0  0  0  0
    7.9878  -22.3205  -13.0821 O   0  0  0  0  0  0
    7.4422  -21.1938  -13.2321 C   0  0  0  0  0  0
    8.2010  -19.9649  -12.8419 C   0  0  0  0  0  0
  1  4  1  0  0  0
  1  8  1  0  0  0
  2  6  2  0  0  0
  3  5  1  0  0  0
  3  7  1  0  0  0
  4  5  1  0  0  0
  4  6  1  0  0  0
  5 17  1  0  0  0
  6  7  1  0  0  0
  7 21  1  0  0  0
  9 16  2  0  0  0
  9 18  1  0  0  0
 10 12  1  0  0  0
 10 19  1  0  0  0
 10 20  1  0  0  0
 11 15  2  0  0  0
 11 17  1  0  0  0
 11 18  1  0  0  0
 12 13  1  0  0  0
 12 18  2  0  0  0
 13 14  2  0  0  0
 14 15  1  0  0  0
 16 17  1  0  0  0
 21 22  1  0  0  0
 22 23  1  0  0  0
 23 24  3  0  0  0
 24 25  1  0  0  0
 25 29  1  0  0  0
 25 26  2  0  0  0
 26 27  1  0  0  0
 28 29  2  0  0  0
 29 30  1  0  0  0
M  END
> <s_m_entry_id>
854

> <s_m_entry_name>
10-myco-1_0_lig_gen_fit_add_gna.sdf.1

> <s_m_Source_Path>
C:\Users\maila\Downloads\mgr\myco-analysis

> <s_m_Source_File>
myco-10-var1-wzakresie.mae

> <i_m_Source_File_Index>
1

> <s_user_SMILES>
CC(=O)C(=N/[H])\C#CCC[C@H](C1=O)O[C@H]([C@@H]1O)n(cn2)c(c23)ncnc3N

> <minimizedAffinity>
-9.67172

> <minimizedRMSD>
0.43599

> <CNNscore>
0.9816637635

> <CNNaffinity>
6.3883771896

> <CNN_VS>
6.271238327

> <CNNaffinity_variance>
0.3686988354

$$$$
OOP(O)C#CCC[C@@H]1[C@@H](O)[C@@H](O)[C@@H](O1)n(cn2)c(c23)ncnc3N
                    3D
 Schrodinger Suite 2021-1.
 31 33  0  0  1  0            999 V2000
    7.1084  -16.4590   -8.8228 O   0  0  0  0  0  0
    4.8312  -17.1840   -9.1301 C   0  0  2  0  0  0
    6.4621  -17.6721  -10.7653 C   0  0  1  0  0  0
    7.7550  -17.3594  -11.2100 O   0  0  0  0  0  0
    4.3364  -16.7248  -10.3780 O   0  0  0  0  0  0
    6.3158  -17.5252   -9.2781 C   0  0  1  0  0  0
    5.4453  -16.6532  -11.2450 C   0  0  2  0  0  0
    7.2583  -16.6125   -7.8561 H   0  0  0  0  0  0
    8.3257  -18.1365  -10.9770 H   0  0  0  0  0  0
    5.1674  -19.7937   -5.5560 C   0  0  0  0  0  0
    2.2716  -21.9153   -6.2829 N   0  0  0  0  0  0
    4.2414  -19.0756   -7.5643 C   0  0  0  0  0  0
    2.4894  -19.9842   -8.5660 N   0  0  0  0  0  0
    3.2614  -20.9076   -6.4217 C   0  0  0  0  0  0
    4.2046  -20.7500   -5.4625 N   0  0  0  0  0  0
    5.1907  -18.9234   -6.6104 N   0  0  0  0  0  0
    2.9762  -18.9126   -9.2523 C   0  0  0  0  0  0
    4.0619  -18.3437   -8.6722 N   0  0  0  0  0  0
    3.3030  -20.0486   -7.5054 C   0  0  0  0  0  0
    2.0758  -22.3156   -5.3418 H   0  0  0  0  0  0
    1.8228  -22.3370   -7.1183 H   0  0  0  0  0  0
    5.0366  -16.7940  -12.7210 C   0  0  0  0  0  0
    4.2586  -18.0684  -13.0894 C   0  0  0  0  0  0
    5.8861  -20.1388  -13.5326 C   0  0  0  0  0  0
    5.1510  -19.2075  -13.3286 C   0  0  0  0  0  0
    6.9689  -21.3536  -15.5802 O   0  0  0  0  0  0
    6.9966  -21.5245  -13.8527 P   0  0  0  0  0  0
    7.9110  -21.4774  -15.8603 H   0  0  0  0  0  0
    6.3099  -23.7455  -13.1584 O   0  0  0  0  0  0
    5.7591  -22.7390  -13.8042 O   0  0  0  0  0  0
    5.9015  -23.7182  -12.2564 H   0  0  0  0  0  0
  1  6  1  0  0  0
  1  8  1  0  0  0
  2 18  1  0  0  0
  2  5  1  0  0  0
  2  6  1  0  0  0
  3  4  1  0  0  0
  3  6  1  0  0  0
  3  7  1  0  0  0
  4  9  1  0  0  0
  5  7  1  0  0  0
  7 22  1  0  0  0
 10 15  2  0  0  0
 10 16  1  0  0  0
 11 14  1  0  0  0
 11 20  1  0  0  0
 11 21  1  0  0  0
 12 16  2  0  0  0
 12 18  1  0  0  0
 12 19  1  0  0  0
 13 17  2  0  0  0
 13 19  1  0  0  0
 14 15  1  0  0  0
 14 19  2  0  0  0
 17 18  1  0  0  0
 22 23  1  0  0  0
 23 25  1  0  0  0
 24 25  3  0  0  0
 24 27  1  0  0  0
 26 27  1  0  0  0
 26 28  1  0  0  0
 27 30  1  0  0  0
 29 30  1  0  0  0
 29 31  1  0  0  0
M  END
> <s_m_entry_id>
855

> <s_m_entry_name>
10-myco-1_0_lig_gen_fit_add_gna.sdf.2

> <s_m_Source_Path>
C:\Users\maila\Downloads\mgr\myco-analysis

> <s_m_Source_File>
myco-10-var1-wzakresie.mae

> <i_m_Source_File_Index>
2

> <s_user_SMILES>
OOP(O)C#CCC[C@@H]1[C@@H](O)[C@@H](O)[C@@H](O1)n(cn2)c(c23)ncnc3N

> <minimizedAffinity>
-9.33223

> <minimizedRMSD>
0.5032

> <CNNscore>
0.9870355129

> <CNNaffinity>
6.1146473885

> <CNN_VS>
6.0353741646

> <CNNaffinity_variance>
0.1967434883

$$$$
O[C@@H](O1)C1=C=CC[C@@H]2[C@@H](O)[C@@H](O)[C@@H](O2)n(cn3)c(c34)ncnc4N
                    3D
 Schrodinger Suite 2021-1.
 29 32  0  0  1  0            999 V2000
    7.0999  -16.4011   -8.8183 O   0  0  0  0  0  0
    8.0387  -17.4496  -11.0469 O   0  0  0  0  0  0
    6.3962  -17.5288   -9.2698 C   0  0  2  0  0  0
    4.5310  -16.9377  -10.6669 O   0  0  0  0  0  0
    6.7312  -17.8300  -10.7063 C   0  0  1  0  0  0
    4.8997  -17.2089   -9.3259 C   0  0  1  0  0  0
    5.7030  -16.9893  -11.4478 C   0  0  1  0  0  0
    7.9249  -16.7374   -8.3827 H   0  0  0  0  0  0
    8.6418  -18.1317  -10.6515 H   0  0  0  0  0  0
    4.2260  -18.9742   -7.6333 C   0  0  0  0  0  0
    3.2836  -19.9413   -7.5489 C   0  0  0  0  0  0
    2.2567  -21.7896   -6.2879 N   0  0  0  0  0  0
    5.1392  -19.6356   -5.5973 C   0  0  0  0  0  0
    4.1740  -20.5890   -5.4777 N   0  0  0  0  0  0
    5.1714  -18.8008   -6.6791 N   0  0  0  0  0  0
    3.2346  -20.7711   -6.4391 C   0  0  0  0  0  0
    2.5044  -19.9323   -8.6382 N   0  0  0  0  0  0
    3.0128  -18.8981   -9.3677 C   0  0  0  0  0  0
    4.0934  -18.3124   -8.7938 N   0  0  0  0  0  0
    2.0708  -22.1841   -5.3419 H   0  0  0  0  0  0
    1.8202  -22.2336   -7.1186 H   0  0  0  0  0  0
    5.4021  -17.5099  -12.8633 C   0  0  0  0  0  0
    5.7193  -19.9058  -13.2310 C   0  0  0  0  0  0
    4.9229  -18.9337  -12.8766 C   0  0  0  0  0  0
    6.5255  -20.8722  -13.5673 C   0  0  0  0  0  0
    6.1500  -22.9842  -14.4332 O   0  0  0  0  0  0
    6.9060  -22.1935  -13.5648 C   0  0  1  0  0  0
    7.7637  -21.3790  -14.2474 O   0  0  0  0  0  0
    5.5222  -23.4869  -13.8531 H   0  0  0  0  0  0
  1  3  1  0  0  0
  1  8  1  0  0  0
  2  5  1  0  0  0
  2  9  1  0  0  0
  3  5  1  0  0  0
  3  6  1  0  0  0
  4  6  1  0  0  0
  4  7  1  0  0  0
  5  7  1  0  0  0
  6 19  1  0  0  0
  7 22  1  0  0  0
 10 11  2  0  0  0
 10 15  1  0  0  0
 10 19  1  0  0  0
 11 16  1  0  0  0
 11 17  1  0  0  0
 12 16  1  0  0  0
 12 20  1  0  0  0
 12 21  1  0  0  0
 13 14  1  0  0  0
 13 15  2  0  0  0
 14 16  2  0  0  0
 17 18  2  0  0  0
 18 19  1  0  0  0
 22 24  1  0  0  0
 23 24  2  0  0  0
 23 25  2  0  0  0
 25 27  1  0  0  0
 25 28  1  0  0  0
 26 27  1  0  0  0
 26 29  1  0  0  0
 27 28  1  0  0  0
M  END
> <s_m_entry_id>
856

> <s_m_entry_name>
10-myco-1_0_lig_gen_fit_add_gna.sdf.4

> <s_m_Source_Path>
C:\Users\maila\Downloads\mgr\myco-analysis

> <s_m_Source_File>
myco-10-var1-wzakresie.mae

> <i_m_Source_File_Index>
3

> <s_user_SMILES>
O[C@@H](O1)C1=C=CC[C@@H]2[C@@H](O)[C@@H](O)[C@@H](O2)n(cn3)c(c34)ncnc4N

> <minimizedAffinity>
-10.25161

> <minimizedRMSD>
0.41838

> <CNNscore>
0.984531939

> <CNNaffinity>
6.0823931694

> <CNN_VS>
5.9883103371

> <CNNaffinity_variance>
0.2443556786

$$$$
OC(O)CCC[C@@H]1[C@@H](O)[C@@H](O)[C@@H](O1)n(cn2)c(c23)ncnc3N
                    3D
 Schrodinger Suite 2021-1.
 29 31  0  0  1  0            999 V2000
    7.1685  -16.6719   -9.2011 O   0  0  0  0  0  0
    6.0800  -17.6185  -11.1152 C   0  0  2  0  0  0
    6.2240  -17.6238   -9.6165 C   0  0  2  0  0  0
    4.1508  -16.5599  -10.1970 O   0  0  0  0  0  0
    7.2699  -17.2561  -11.7663 O   0  0  0  0  0  0
    4.8358  -17.2042   -9.1373 C   0  0  1  0  0  0
    4.9981  -16.5676  -11.3258 C   0  0  2  0  0  0
    8.0364  -17.1465   -9.1334 H   0  0  0  0  0  0
    7.8737  -18.0419  -11.7075 H   0  0  0  0  0  0
    4.2347  -19.0762   -7.5374 C   0  0  0  0  0  0
    2.2824  -21.9345   -6.2665 N   0  0  0  0  0  0
    4.2168  -20.7682   -5.4447 N   0  0  0  0  0  0
    5.1929  -18.9335   -6.5909 N   0  0  0  0  0  0
    3.2959  -20.0482   -7.4748 C   0  0  0  0  0  0
    5.1791  -19.8099   -5.5416 C   0  0  0  0  0  0
    3.2640  -20.9171   -6.3977 C   0  0  0  0  0  0
    2.4814  -19.9839   -8.5347 N   0  0  0  0  0  0
    4.0638  -18.3540   -8.6557 N   0  0  0  0  0  0
    2.9669  -18.9132   -9.2238 C   0  0  0  0  0  0
    2.0962  -22.3487   -5.3292 H   0  0  0  0  0  0
    1.8370  -22.3516   -7.1068 H   0  0  0  0  0  0
    4.1972  -16.7868  -12.6250 C   0  0  0  0  0  0
    3.6727  -18.2272  -12.7938 C   0  0  0  0  0  0
    3.2938  -18.5576  -14.2440 C   0  0  0  0  0  0
    2.6205  -17.4407  -16.2730 O   0  0  0  0  0  0
    2.3972  -17.4855  -14.8872 C   0  0  0  0  0  0
    1.0433  -17.7575  -14.6369 O   0  0  0  0  0  0
    3.5154  -17.0306  -16.4045 H   0  0  0  0  0  0
    0.8033  -18.5600  -15.1700 H   0  0  0  0  0  0
  1  3  1  0  0  0
  1  8  1  0  0  0
  2  3  1  0  0  0
  2  5  1  0  0  0
  2  7  1  0  0  0
  3  6  1  0  0  0
  4  6  1  0  0  0
  4  7  1  0  0  0
  5  9  1  0  0  0
  6 18  1  0  0  0
  7 22  1  0  0  0
 10 13  2  0  0  0
 10 14  1  0  0  0
 10 18  1  0  0  0
 11 16  1  0  0  0
 11 20  1  0  0  0
 11 21  1  0  0  0
 12 15  2  0  0  0
 12 16  1  0  0  0
 13 15  1  0  0  0
 14 16  2  0  0  0
 14 17  1  0  0  0
 17 19  2  0  0  0
 18 19  1  0  0  0
 22 23  1  0  0  0
 23 24  1  0  0  0
 24 26  1  0  0  0
 25 26  1  0  0  0
 25 28  1  0  0  0
 26 27  1  0  0  0
 27 29  1  0  0  0
M  END
> <s_m_entry_id>
857

> <s_m_entry_name>
10-myco-1_0_lig_gen_fit_add_gna.sdf.7

> <s_m_Source_Path>
C:\Users\maila\Downloads\mgr\myco-analysis

> <s_m_Source_File>
myco-10-var1-wzakresie.mae

> <i_m_Source_File_Index>
4

> <s_user_SMILES>
OC(O)CCC[C@@H]1[C@@H](O)[C@@H](O)[C@@H](O1)n(cn2)c(c23)ncnc3N

> <minimizedAffinity>
-9.75953

> <minimizedRMSD>
1.19111

> <CNNscore>
0.9895743132

> <CNNaffinity>
6.0418224335

> <CNN_VS>
5.9788322449

> <CNNaffinity_variance>
0.2705306411

$$$$
O=C(O)C(N)=C=CC[C@@H]1[C@@H](O)[C@@H](O)[C@@H](O1)n(cn2)c(c23)ncnc3N
                    3D
 Schrodinger Suite 2021-1.
 32 34  0  0  1  0            999 V2000
    7.0139  -16.4750   -9.1976 O   0  0  0  0  0  0
    4.7523  -17.2728   -9.1939 C   0  0  2  0  0  0
    6.1984  -17.8207  -10.9915 C   0  0  2  0  0  0
    7.4041  -17.4405  -11.6018 O   0  0  0  0  0  0
    4.1090  -16.8511  -10.3866 O   0  0  0  0  0  0
    5.0485  -16.9285  -11.4380 C   0  0  2  0  0  0
    6.2110  -17.5837   -9.5061 C   0  0  1  0  0  0
    7.3448  -16.6158   -8.2743 H   0  0  0  0  0  0
    8.0713  -18.1358  -11.3629 H   0  0  0  0  0  0
    2.0325  -21.5252   -5.7998 N   0  0  0  0  0  0
    3.1708  -20.7337   -6.1191 C   0  0  0  0  0  0
    4.2178  -19.0595   -7.4431 C   0  0  0  0  0  0
    2.9555  -19.0433   -9.1431 C   0  0  0  0  0  0
    5.2184  -18.9101   -6.5408 N   0  0  0  0  0  0
    4.0532  -18.4355   -8.6271 N   0  0  0  0  0  0
    5.2006  -19.7206   -5.4343 C   0  0  0  0  0  0
    4.1744  -20.5896   -5.2214 N   0  0  0  0  0  0
    2.4588  -20.0341   -8.3546 N   0  0  0  0  0  0
    3.2479  -19.9886   -7.2816 C   0  0  0  0  0  0
    1.1205  -21.3134   -6.2508 H   0  0  0  0  0  0
    2.0308  -22.1166   -4.9415 H   0  0  0  0  0  0
    4.3855  -17.3996  -12.7487 C   0  0  0  0  0  0
    3.8630  -20.2496  -14.9299 C   0  0  0  0  0  0
    3.9668  -18.8432  -12.7272 C   0  0  0  0  0  0
    3.9100  -19.5414  -13.8292 C   0  0  0  0  0  0
    4.6035  -19.8175  -16.0733 N   0  0  0  0  0  0
    4.5985  -20.3709  -16.9582 H   0  0  0  0  0  0
    5.1878  -18.9543  -16.0357 H   0  0  0  0  0  0
    3.0883  -21.5041  -14.9835 C   0  0  0  0  0  0
    2.6934  -22.0620  -13.9247 O   0  0  0  0  0  0
    2.7935  -22.0860  -16.2127 O   0  0  0  0  0  0
    2.2630  -22.9473  -16.2662 H   0  0  0  0  0  0
  1  7  1  0  0  0
  1  8  1  0  0  0
  2 15  1  0  0  0
  2  5  1  0  0  0
  2  7  1  0  0  0
  3  4  1  0  0  0
  3  6  1  0  0  0
  3  7  1  0  0  0
  4  9  1  0  0  0
  5  6  1  0  0  0
  6 22  1  0  0  0
 10 11  1  0  0  0
 10 20  1  0  0  0
 10 21  1  0  0  0
 11 17  2  0  0  0
 11 19  1  0  0  0
 12 14  1  0  0  0
 12 15  1  0  0  0
 12 19  2  0  0  0
 13 15  1  0  0  0
 13 18  2  0  0  0
 14 16  2  0  0  0
 16 17  1  0  0  0
 18 19  1  0  0  0
 22 24  1  0  0  0
 23 29  1  0  0  0
 23 25  2  0  0  0
 23 26  1  0  0  0
 24 25  2  0  0  0
 26 27  1  0  0  0
 26 28  1  0  0  0
 29 30  2  0  0  0
 29 31  1  0  0  0
 31 32  1  0  0  0
M  END
> <s_m_entry_id>
858

> <s_m_entry_name>
10-myco-1_0_lig_gen_fit_add_gna.sdf.10

> <s_m_Source_Path>
C:\Users\maila\Downloads\mgr\myco-analysis

> <s_m_Source_File>
myco-10-var1-wzakresie.mae

> <i_m_Source_File_Index>
5

> <s_user_SMILES>
O=C(O)C(N)=C=CC[C@@H]1[C@@H](O)[C@@H](O)[C@@H](O1)n(cn2)c(c23)ncnc3N

> <minimizedAffinity>
-10.06221

> <minimizedRMSD>
0.56599

> <CNNscore>
0.9856107831

> <CNNaffinity>
6.1334962845

> <CNN_VS>
6.0452399254

> <CNNaffinity_variance>
0.2110989094

$$$$
O=C1N=CN=C(C12)C=NC=2C(=O)NCC(C3)=CC=C3C[C@H](C)N4CCCCC4
                    3D
 Schrodinger Suite 2021-1.
 29 32  0  0  1  0            999 V2000
    4.3149  -16.4472  -11.9085 C   0  0  0  0  0  0
    3.2324  -18.7893  -14.6353 C   0  0  0  0  0  0
    4.5388  -19.0154  -14.5554 C   0  0  0  0  0  0
    4.1140  -17.5386  -12.9088 C   0  0  0  0  0  0
    2.8091  -17.8257  -13.5769 C   0  0  0  0  0  0
    5.0913  -18.2396  -13.4618 C   0  0  0  0  0  0
    2.3338  -19.2641  -15.7491 C   0  0  0  0  0  0
    2.8153  -21.7609  -15.9663 C   0  0  0  0  0  0
    1.7932  -20.6943  -15.5269 C   0  0  2  0  0  0
    0.5287  -20.8792  -17.6693 C   0  0  0  0  0  0
   -1.7144  -21.9946  -16.1820 C   0  0  0  0  0  0
   -1.7336  -22.0060  -17.7123 C   0  0  0  0  0  0
   -0.8802  -20.8654  -18.2748 C   0  0  0  0  0  0
    0.4670  -20.8505  -16.1887 N   0  0  0  0  0  0
   -0.2717  -22.0226  -15.6732 C   0  0  0  0  0  0
    6.3841  -17.3449  -10.1472 O   0  0  0  0  0  0
    4.1183  -16.9409  -10.5475 N   0  0  0  0  0  0
    5.1955  -17.4333   -9.7375 C   0  0  0  0  0  0
    3.1775  -16.8115  -10.1147 H   0  0  0  0  0  0
    3.9482  -18.7705   -8.0055 C   0  0  0  0  0  0
    4.9504  -17.9827   -8.3917 C   0  0  0  0  0  0
    2.0082  -20.2836   -7.8406 N   0  0  0  0  0  0
    5.4139  -18.4361   -6.2732 C   0  0  0  0  0  0
    2.6460  -19.3841   -9.9081 O   0  0  0  0  0  0
    2.8402  -19.4532   -8.6676 C   0  0  0  0  0  0
    2.2724  -20.4810   -6.5721 C   0  0  0  0  0  0
    5.8651  -17.7837   -7.3008 N   0  0  0  0  0  0
    3.4337  -19.8897   -5.9483 N   0  0  0  0  0  0
    4.1864  -19.0929   -6.6391 C   0  0  0  0  0  0
  1  4  1  0  0  0
  1 17  1  0  0  0
  2  3  2  0  0  0
  2  5  1  0  0  0
  2  7  1  0  0  0
  3  6  1  0  0  0
  4  5  1  0  0  0
  4  6  2  0  0  0
  7  9  1  0  0  0
  8  9  1  0  0  0
  9 14  1  0  0  0
 10 13  1  0  0  0
 10 14  1  0  0  0
 11 12  1  0  0  0
 11 15  1  0  0  0
 12 13  1  0  0  0
 14 15  1  0  0  0
 16 18  2  0  0  0
 17 18  1  0  0  0
 17 19  1  0  0  0
 18 21  1  0  0  0
 20 21  2  0  0  0
 20 25  1  0  0  0
 20 29  1  0  0  0
 21 27  1  0  0  0
 22 25  1  0  0  0
 22 26  2  0  0  0
 23 27  2  0  0  0
 23 29  1  0  0  0
 24 25  2  0  0  0
 26 28  1  0  0  0
 28 29  2  0  0  0
M  END
> <s_m_entry_id>
859

> <s_m_entry_name>
10-myco-1_1_lig_gen_fit_add_gna.sdf.2

> <s_m_Source_Path>
C:\Users\maila\Downloads\mgr\myco-analysis

> <s_m_Source_File>
myco-10-var1-wzakresie.mae

> <i_m_Source_File_Index>
6

> <s_user_SMILES>
O=C1N=CN=C(C12)C=NC=2C(=O)NCC(C3)=CC=C3C[C@H](C)N4CCCCC4

> <minimizedAffinity>
-8.17278

> <minimizedRMSD>
0.61391

> <CNNscore>
0.8501387239

> <CNNaffinity>
6.7322645187

> <CNN_VS>
5.7233586311

> <CNNaffinity_variance>
0.133887887

$$$$
O=C1N=CN=C(C12)C=NC=2C(=O)NCc(cc3)ccc3C[C@H](CC)N4CCCC4
                    3D
 Schrodinger Suite 2021-1.
 30 33  0  0  1  0            999 V2000
    2.1054  -19.1099  -15.2011 C   0  0  0  0  0  0
    3.4351  -17.3887  -13.3822 C   0  0  0  0  0  0
    3.8001  -18.7397  -13.4791 C   0  0  0  0  0  0
    1.7457  -17.7542  -15.0908 C   0  0  0  0  0  0
    3.1572  -19.5893  -14.3894 C   0  0  0  0  0  0
    2.4032  -16.9034  -14.1967 C   0  0  0  0  0  0
    1.3673  -19.9548  -16.2367 C   0  0  0  0  0  0
    1.5050  -21.5057  -16.1267 C   0  0  1  0  0  0
   -2.0475  -21.9053  -17.0829 C   0  0  0  0  0  0
   -0.6304  -21.5604  -17.4964 C   0  0  0  0  0  0
   -0.5171  -22.7583  -15.4489 C   0  0  0  0  0  0
   -1.9386  -22.2493  -15.6226 C   0  0  0  0  0  0
    0.2920  -22.2572  -16.5745 N   0  0  0  0  0  0
    2.8081  -22.0426  -16.7862 C   0  0  0  0  0  0
    2.6628  -23.2736  -17.6798 C   0  0  0  0  0  0
    4.1647  -16.4663  -12.4370 C   0  0  0  0  0  0
    6.1939  -16.6853  -10.4375 O   0  0  0  0  0  0
    5.0311  -17.0521  -10.1174 C   0  0  0  0  0  0
    3.9478  -16.8680  -11.0435 N   0  0  0  0  0  0
    2.9764  -16.8145  -10.6677 H   0  0  0  0  0  0
    4.8288  -17.6169   -8.7641 C   0  0  0  0  0  0
    3.9143  -18.5044   -8.3558 C   0  0  0  0  0  0
    2.6067  -19.2318  -10.2203 O   0  0  0  0  0  0
    4.2484  -18.8384   -7.0075 C   0  0  0  0  0  0
    3.6551  -19.7680   -6.3259 N   0  0  0  0  0  0
    2.8726  -19.3116   -8.9938 C   0  0  0  0  0  0
    5.7654  -17.3632   -7.7020 N   0  0  0  0  0  0
    2.5543  -20.4875   -6.9222 C   0  0  0  0  0  0
    2.2018  -20.2776   -8.1663 N   0  0  0  0  0  0
    5.4198  -18.0753   -6.6747 C   0  0  0  0  0  0
  1  4  2  0  0  0
  1  7  1  0  0  0
  1  5  1  0  0  0
  2  3  1  0  0  0
  2 16  1  0  0  0
  2  6  2  0  0  0
  3  5  2  0  0  0
  4  6  1  0  0  0
  7  8  1  0  0  0
  8 14  1  0  0  0
  8 13  1  0  0  0
  9 10  1  0  0  0
  9 12  1  0  0  0
 10 13  1  0  0  0
 11 12  1  0  0  0
 11 13  1  0  0  0
 14 15  1  0  0  0
 16 19  1  0  0  0
 17 18  2  0  0  0
 18 21  1  0  0  0
 18 19  1  0  0  0
 19 20  1  0  0  0
 21 22  2  0  0  0
 21 27  1  0  0  0
 22 24  1  0  0  0
 22 26  1  0  0  0
 23 26  2  0  0  0
 24 25  2  0  0  0
 24 30  1  0  0  0
 25 28  1  0  0  0
 26 29  1  0  0  0
 27 30  2  0  0  0
 28 29  2  0  0  0
M  END
> <s_m_entry_id>
860

> <s_m_entry_name>
10-myco-1_1_lig_gen_fit_add_gna.sdf.3

> <s_m_Source_Path>
C:\Users\maila\Downloads\mgr\myco-analysis

> <s_m_Source_File>
myco-10-var1-wzakresie.mae

> <i_m_Source_File_Index>
7

> <s_user_SMILES>
O=C1N=CN=C(C12)C=NC=2C(=O)NCc(cc3)ccc3C[C@H](CC)N4CCCC4

> <minimizedAffinity>
-8.0234

> <minimizedRMSD>
0.79172

> <CNNscore>
0.7862740755

> <CNNaffinity>
6.3327093124

> <CNN_VS>
4.9792451859

> <CNNaffinity_variance>
0.2513751686

$$$$
O=C1N=CN=C(C12)C=CC=2C(=O)NCc(cc3)ccc3[C@@H](C)N4CCCCC4
                    3D
 Schrodinger Suite 2021-1.
 29 32  0  0  1  0            999 V2000
    4.0940  -16.5418  -11.8420 C   0  0  0  0  0  0
    2.5493  -18.3432  -14.8195 C   0  0  0  0  0  0
    3.3576  -19.4897  -14.9182 C   0  0  0  0  0  0
    2.7545  -17.4097  -13.8009 C   0  0  0  0  0  0
    4.3141  -19.7278  -13.9114 C   0  0  0  0  0  0
    4.5310  -18.7823  -12.9032 C   0  0  0  0  0  0
    3.7667  -17.6090  -12.8510 C   0  0  0  0  0  0
    4.4999  -21.2609  -16.3796 C   0  0  0  0  0  0
    3.2600  -20.3559  -16.1685 C   0  0  1  0  0  0
    1.9750  -23.3028  -17.4505 C   0  0  0  0  0  0
    1.7842  -21.7802  -17.5683 C   0  0  0  0  0  0
    1.0082  -23.9254  -16.4296 C   0  0  0  0  0  0
    1.6114  -21.8775  -15.0758 C   0  0  0  0  0  0
    0.5219  -22.9107  -15.3872 C   0  0  0  0  0  0
    1.9624  -21.0734  -16.2694 N   0  0  0  0  0  0
    6.2114  -17.3784  -10.1068 O   0  0  0  0  0  0
    5.0322  -17.4801   -9.6717 C   0  0  0  0  0  0
    3.9316  -17.0513  -10.4798 N   0  0  0  0  0  0
    2.9920  -16.9940  -10.0378 H   0  0  0  0  0  0
    5.3852  -18.3557   -6.1006 C   0  0  0  0  0  0
    3.8966  -18.8177   -7.8315 C   0  0  0  0  0  0
    5.7608  -17.7161   -7.2060 C   0  0  0  0  0  0
    3.5153  -19.9151   -5.7272 N   0  0  0  0  0  0
    4.1895  -19.0784   -6.4523 C   0  0  0  0  0  0
    2.6372  -19.6359   -9.6849 O   0  0  0  0  0  0
    2.0931  -20.4837   -7.5725 N   0  0  0  0  0  0
    4.8256  -17.9842   -8.3012 C   0  0  0  0  0  0
    2.3915  -20.6130   -6.3044 C   0  0  0  0  0  0
    2.8424  -19.6226   -8.4444 C   0  0  0  0  0  0
  1 18  1  0  0  0
  1  7  1  0  0  0
  2  3  2  0  0  0
  2  4  1  0  0  0
  3  5  1  0  0  0
  3  9  1  0  0  0
  4  7  2  0  0  0
  5  6  2  0  0  0
  6  7  1  0  0  0
  8  9  1  0  0  0
  9 15  1  0  0  0
 10 11  1  0  0  0
 10 12  1  0  0  0
 11 15  1  0  0  0
 12 14  1  0  0  0
 13 14  1  0  0  0
 13 15  1  0  0  0
 16 17  2  0  0  0
 17 27  1  0  0  0
 17 18  1  0  0  0
 18 19  1  0  0  0
 20 22  2  0  0  0
 20 24  1  0  0  0
 21 24  1  0  0  0
 21 27  2  0  0  0
 21 29  1  0  0  0
 22 27  1  0  0  0
 23 24  2  0  0  0
 23 28  1  0  0  0
 25 29  2  0  0  0
 26 28  2  0  0  0
 26 29  1  0  0  0
M  END
> <s_m_entry_id>
861

> <s_m_entry_name>
10-myco-1_1_lig_gen_fit_add_gna.sdf.5

> <s_m_Source_Path>
C:\Users\maila\Downloads\mgr\myco-analysis

> <s_m_Source_File>
myco-10-var1-wzakresie.mae

> <i_m_Source_File_Index>
8

> <s_user_SMILES>
O=C1N=CN=C(C12)C=CC=2C(=O)NCc(cc3)ccc3[C@@H](C)N4CCCCC4

> <minimizedAffinity>
-8.31583

> <minimizedRMSD>
0.56186

> <CNNscore>
0.8597640395

> <CNNaffinity>
6.413807869

> <CNN_VS>
5.5143613815

> <CNNaffinity_variance>
0.0947495848

$$$$
O=C1N=CN=C(C12)N=CC=2C(=O)Nc(cc3)ccc3C[C@H](C)N4CCCCC4
                    3D
 Schrodinger Suite 2021-1.
 29 32  0  0  1  0            999 V2000
    4.0767  -19.5401  -14.6535 C   0  0  0  0  0  0
    5.1023  -18.7728  -12.5855 C   0  0  0  0  0  0
    3.8357  -18.4157  -12.0822 C   0  0  0  0  0  0
    2.8284  -19.1576  -14.1624 C   0  0  0  0  0  0
    5.2177  -19.3501  -13.8565 C   0  0  0  0  0  0
    2.7128  -18.6281  -12.8880 C   0  0  0  0  0  0
    3.6416  -17.9156  -10.7452 N   0  0  0  0  0  0
    5.6046  -16.7739  -10.2473 O   0  0  0  0  0  0
    4.6911  -17.5474   -9.8525 C   0  0  0  0  0  0
    2.6814  -17.9235  -10.3414 H   0  0  0  0  0  0
    3.8932  -18.8810   -7.8315 C   0  0  0  0  0  0
    2.3996  -19.8695   -9.4126 O   0  0  0  0  0  0
    4.6909  -18.0109   -8.4506 C   0  0  0  0  0  0
    2.8090  -19.7820   -8.2285 C   0  0  0  0  0  0
    4.4112  -19.0273   -6.5075 C   0  0  0  0  0  0
    2.7832  -20.6824   -6.0057 C   0  0  0  0  0  0
    3.9234  -19.8677   -5.6479 N   0  0  0  0  0  0
    5.5692  -18.2359   -6.3255 N   0  0  0  0  0  0
    2.2747  -20.6450   -7.2112 N   0  0  0  0  0  0
    5.7251  -17.6514   -7.4753 C   0  0  0  0  0  0
    4.1786  -20.0758  -16.0508 C   0  0  0  0  0  0
    3.9686  -22.1508  -17.4977 C   0  0  0  0  0  0
    3.4565  -21.4306  -16.2332 C   0  0  2  0  0  0
    1.2680  -21.0083  -17.4814 C   0  0  0  0  0  0
    0.5385  -23.4231  -17.3673 C   0  0  0  0  0  0
    0.8918  -23.5099  -15.8716 C   0  0  0  0  0  0
    0.1321  -22.0067  -17.7713 C   0  0  0  0  0  0
    1.9756  -21.2658  -16.1998 N   0  0  0  0  0  0
    1.2551  -22.1460  -15.2585 C   0  0  0  0  0  0
  1  4  2  0  0  0
  1 21  1  0  0  0
  1  5  1  0  0  0
  2  3  1  0  0  0
  2  5  2  0  0  0
  3  7  1  0  0  0
  3  6  2  0  0  0
  4  6  1  0  0  0
  7  9  1  0  0  0
  7 10  1  0  0  0
  8  9  2  0  0  0
  9 13  1  0  0  0
 11 13  2  0  0  0
 11 14  1  0  0  0
 11 15  1  0  0  0
 12 14  2  0  0  0
 13 20  1  0  0  0
 14 19  1  0  0  0
 15 17  2  0  0  0
 15 18  1  0  0  0
 16 17  1  0  0  0
 16 19  2  0  0  0
 18 20  2  0  0  0
 21 23  1  0  0  0
 22 23  1  0  0  0
 23 28  1  0  0  0
 24 27  1  0  0  0
 24 28  1  0  0  0
 25 26  1  0  0  0
 25 27  1  0  0  0
 26 29  1  0  0  0
 28 29  1  0  0  0
M  END
> <s_m_entry_id>
862

> <s_m_entry_name>
10-myco-1_1_lig_gen_fit_add_gna.sdf.8

> <s_m_Source_Path>
C:\Users\maila\Downloads\mgr\myco-analysis

> <s_m_Source_File>
myco-10-var1-wzakresie.mae

> <i_m_Source_File_Index>
9

> <s_user_SMILES>
O=C1N=CN=C(C12)N=CC=2C(=O)Nc(cc3)ccc3C[C@H](C)N4CCCCC4

> <minimizedAffinity>
-8.32628

> <minimizedRMSD>
0.30523

> <CNNscore>
0.8962690234

> <CNNaffinity>
6.4267296791

> <CNN_VS>
5.760078907

> <CNNaffinity_variance>
0.1630064845

$$$$
O=C1N=CN=C(C12)C=CC=2C(=O)Nc(cc3)ccc3[C@H](C)CCCC
                    3D
 Schrodinger Suite 2021-1.
 26 28  0  0  1  0            999 V2000
    3.8467  -17.0911  -11.5313 N   0  0  0  0  0  0
    5.8776  -16.2548  -10.8018 O   0  0  0  0  0  0
    4.8610  -16.9510  -10.5362 C   0  0  0  0  0  0
    2.8867  -16.7704  -11.2806 H   0  0  0  0  0  0
    4.7433  -17.5649   -9.1930 C   0  0  0  0  0  0
    4.2920  -18.8346   -7.3920 C   0  0  0  0  0  0
    2.4800  -19.1626  -10.5207 O   0  0  0  0  0  0
    5.4900  -18.1035   -7.0792 C   0  0  0  0  0  0
    3.8703  -18.4607   -8.7150 C   0  0  0  0  0  0
    5.7621  -17.3709   -8.1557 C   0  0  0  0  0  0
    3.7712  -19.8184   -6.7260 N   0  0  0  0  0  0
    2.6638  -20.5533   -7.2858 C   0  0  0  0  0  0
    2.8200  -19.2814   -9.3174 C   0  0  0  0  0  0
    2.2342  -20.3081   -8.4967 N   0  0  0  0  0  0
    4.1125  -19.9182  -14.6623 C   0  0  0  0  0  0
    5.2050  -18.6413  -12.9039 C   0  0  0  0  0  0
    4.0411  -17.8779  -12.7206 C   0  0  0  0  0  0
    2.9831  -18.0312  -13.6280 C   0  0  0  0  0  0
    5.2393  -19.6462  -13.8665 C   0  0  0  0  0  0
    3.0063  -19.0528  -14.5800 C   0  0  0  0  0  0
    4.1227  -21.1909  -15.4905 C   0  0  2  0  0  0
    4.9902  -21.0271  -16.7466 C   0  0  0  0  0  0
    2.7468  -21.8510  -15.7692 C   0  0  0  0  0  0
    2.1886  -21.6269  -17.1872 C   0  0  0  0  0  0
   -0.0387  -21.5480  -15.9455 C   0  0  0  0  0  0
    0.7572  -21.0733  -17.1607 C   0  0  0  0  0  0
  1 17  1  0  0  0
  1  3  1  0  0  0
  1  4  1  0  0  0
  2  3  2  0  0  0
  3  5  1  0  0  0
  5  9  2  0  0  0
  5 10  1  0  0  0
  6  8  1  0  0  0
  6  9  1  0  0  0
  6 11  2  0  0  0
  7 13  2  0  0  0
  8 10  2  0  0  0
  9 13  1  0  0  0
 11 12  1  0  0  0
 12 14  2  0  0  0
 13 14  1  0  0  0
 15 21  1  0  0  0
 15 19  2  0  0  0
 15 20  1  0  0  0
 16 17  2  0  0  0
 16 19  1  0  0  0
 17 18  1  0  0  0
 18 20  2  0  0  0
 21 22  1  0  0  0
 21 23  1  0  0  0
 23 24  1  0  0  0
 24 26  1  0  0  0
 25 26  1  0  0  0
M  END
> <s_m_entry_id>
863

> <s_m_entry_name>
10-myco-1_1_lig_gen_fit_add_gna.sdf.10

> <s_m_Source_Path>
C:\Users\maila\Downloads\mgr\myco-analysis

> <s_m_Source_File>
myco-10-var1-wzakresie.mae

> <i_m_Source_File_Index>
10

> <s_user_SMILES>
O=C1N=CN=C(C12)C=CC=2C(=O)Nc(cc3)ccc3[C@H](C)CCCC

> <minimizedAffinity>
-8.06235

> <minimizedRMSD>
0.63584

> <CNNscore>
0.7340121269

> <CNNaffinity>
6.1305627823

> <CNN_VS>
4.4999074936

> <CNNaffinity_variance>
0.4714440703

$$$$
CC#CCNc(cc1)ccc1C[C@@H](O)C=2C=C[C@H](C23)N=CC3=O
                    3D
 Schrodinger Suite 2021-1.
 25 27  0  0  1  0            999 V2000
    4.1211  -17.5015   -9.3018 C   0  0  0  0  0  0
    4.0910  -18.1957  -13.5871 C   0  0  0  0  0  0
    4.1317  -17.7496  -10.7964 C   0  0  0  0  0  0
    4.7653  -17.0871  -13.0497 C   0  0  0  0  0  0
    3.3821  -19.0413  -12.7203 C   0  0  0  0  0  0
    4.7669  -16.8521  -11.6710 C   0  0  0  0  0  0
    3.4163  -18.8275  -11.3432 C   0  0  0  0  0  0
    4.1682  -18.4635  -14.9999 N   0  0  0  0  0  0
    4.0857  -17.6641  -15.6640 H   0  0  0  0  0  0
    4.5945  -19.7427  -15.5641 C   0  0  0  0  0  0
    1.5508  -22.4965  -15.1132 C   0  0  0  0  0  0
    3.5280  -20.7374  -15.4357 C   0  0  0  0  0  0
    2.6381  -21.5390  -15.3058 C   0  0  0  0  0  0
    5.2957  -18.1671   -8.5280 C   0  0  1  0  0  0
    6.2350  -17.1933   -8.1766 O   0  0  0  0  0  0
    6.6934  -16.9044   -9.0100 H   0  0  0  0  0  0
    4.2087  -20.0926   -7.2474 C   0  0  0  0  0  0
    4.8606  -18.9255   -7.2767 C   0  0  0  0  0  0
    2.7999  -20.2316   -7.5331 C   0  0  0  0  0  0
    4.3572  -20.7466   -5.9155 C   0  0  1  0  0  0
    5.1582  -19.7554   -5.1649 C   0  0  0  0  0  0
    3.0013  -20.9213   -5.3978 N   0  0  0  0  0  0
    5.4796  -18.7533   -5.9635 C   0  0  0  0  0  0
    2.2552  -20.0786   -8.6480 O   0  0  0  0  0  0
    2.1436  -20.6970   -6.3348 C   0  0  0  0  0  0
  1  3  1  0  0  0
  1 14  1  0  0  0
  2  4  2  0  0  0
  2  5  1  0  0  0
  2  8  1  0  0  0
  3  6  2  0  0  0
  3  7  1  0  0  0
  4  6  1  0  0  0
  5  7  2  0  0  0
  8 10  1  0  0  0
  8  9  1  0  0  0
 10 12  1  0  0  0
 11 13  1  0  0  0
 12 13  3  0  0  0
 14 18  1  0  0  0
 14 15  1  0  0  0
 15 16  1  0  0  0
 17 18  2  0  0  0
 17 19  1  0  0  0
 17 20  1  0  0  0
 18 23  1  0  0  0
 19 24  2  0  0  0
 19 25  1  0  0  0
 20 21  1  0  0  0
 20 22  1  0  0  0
 21 23  2  0  0  0
 22 25  2  0  0  0
M  END
> <s_m_entry_id>
864

> <s_m_entry_name>
10-myco-1_2_lig_gen_fit_add_gna.sdf.4

> <s_m_Source_Path>
C:\Users\maila\Downloads\mgr\myco-analysis

> <s_m_Source_File>
myco-10-var1-wzakresie.mae

> <i_m_Source_File_Index>
11

> <s_user_SMILES>
CC#CCNc(cc1)ccc1C[C@@H](O)C=2C=C[C@H](C23)N=CC3=O

> <minimizedAffinity>
-8.46686

> <minimizedRMSD>
1.36771

> <CNNscore>
0.8876930475

> <CNNaffinity>
6.2082805634

> <CNN_VS>
5.5110473633

> <CNNaffinity_variance>
0.1498704255

$$$$
O=C1N=CN=C(C12)C=CC=2C(=O)NC(C3)=CC=C3CC4=CC=C(C4)N
                    3D
 Schrodinger Suite 2021-1.
 28 31  0  0  1  0            999 V2000
    4.1317   18.2185  -14.0080 C   0  0  0  0  0  0
    5.3186   17.9167  -13.5034 C   0  0  0  0  0  0
    4.1933   18.8820  -11.8084 C   0  0  0  0  0  0
    3.2616   18.8653  -12.9759 C   0  0  0  0  0  0
    5.3699   18.3574  -12.1291 C   0  0  0  0  0  0
    4.7470   19.4179   -9.4255 C   0  0  0  0  0  0
    3.8027   19.2532  -10.4797 N   0  0  0  0  0  0
    5.7136   20.2111   -9.5883 O   0  0  0  0  0  0
    2.7927   19.3337  -10.2464 H   0  0  0  0  0  0
    3.7999   17.7071   -7.7813 C   0  0  0  0  0  0
    4.1930   17.2647   -6.4716 C   0  0  0  0  0  0
    5.5550   18.9134   -7.0361 C   0  0  0  0  0  0
    2.4334   17.1265   -9.6519 O   0  0  0  0  0  0
    2.1722   15.8442   -7.7124 N   0  0  0  0  0  0
    3.6690   16.2363   -5.8792 N   0  0  0  0  0  0
    2.5953   15.5126   -6.5186 C   0  0  0  0  0  0
    2.7642   16.9241   -8.4565 C   0  0  0  0  0  0
    4.6156   18.7034   -8.1405 C   0  0  0  0  0  0
    5.3130   18.0652   -6.0399 C   0  0  0  0  0  0
    3.7317   17.9403  -15.4263 C   0  0  0  0  0  0
    0.9591   15.5765  -16.3410 C   0  0  0  0  0  0
    1.4393   15.0111  -15.2466 C   0  0  0  0  0  0
    2.5255   15.8348  -14.7492 C   0  0  0  0  0  0
   -0.1188   15.0432  -17.1082 N   0  0  0  0  0  0
    2.6603   16.8953  -15.5391 C   0  0  0  0  0  0
    1.6986   16.8259  -16.6811 C   0  0  0  0  0  0
   -0.6006   14.1646  -16.8135 H   0  0  0  0  0  0
   -0.4437   15.5375  -17.9683 H   0  0  0  0  0  0
  1  2  2  0  0  0
  1  4  1  0  0  0
  1 20  1  0  0  0
  2  5  1  0  0  0
  3  4  1  0  0  0
  3  5  2  0  0  0
  3  7  1  0  0  0
  6 18  1  0  0  0
  6  7  1  0  0  0
  6  8  2  0  0  0
  7  9  1  0  0  0
 10 11  1  0  0  0
 10 17  1  0  0  0
 10 18  2  0  0  0
 11 15  2  0  0  0
 11 19  1  0  0  0
 12 18  1  0  0  0
 12 19  2  0  0  0
 13 17  2  0  0  0
 14 16  2  0  0  0
 14 17  1  0  0  0
 15 16  1  0  0  0
 20 25  1  0  0  0
 21 22  2  0  0  0
 21 24  1  0  0  0
 21 26  1  0  0  0
 22 23  1  0  0  0
 23 25  2  0  0  0
 24 27  1  0  0  0
 24 28  1  0  0  0
 25 26  1  0  0  0
M  END
> <s_m_entry_id>
865

> <s_m_entry_name>
10-myco-1_3_lig_gen_fit_add_gna.sdf.1

> <s_m_Source_Path>
C:\Users\maila\Downloads\mgr\myco-analysis

> <s_m_Source_File>
myco-10-var1-wzakresie.mae

> <i_m_Source_File_Index>
12

> <s_user_SMILES>
O=C1N=CN=C(C12)C=CC=2C(=O)NC(C3)=CC=C3CC4=CC=C(C4)N

> <minimizedAffinity>
-8.87063

> <minimizedRMSD>
0.45437

> <CNNscore>
0.821637392

> <CNNaffinity>
6.4833068848

> <CNN_VS>
5.3269271851

> <CNNaffinity_variance>
0.116978094

$$$$
O=C1N=CN=C(C12)C=CC=2C(=O)NCc3ccc(cc3)CN4CCCC4
                    3D
 Schrodinger Suite 2021-1.
 27 30  0  0  1  0            999 V2000
    6.4112   19.6036  -10.7457 O   0  0  0  0  0  0
    4.2125   20.2288  -11.2188 N   0  0  0  0  0  0
    5.2060   19.6323  -10.3768 C   0  0  0  0  0  0
    3.2657   20.4149  -10.8223 H   0  0  0  0  0  0
    3.9012   18.2536   -8.7130 C   0  0  0  0  0  0
    4.8600   19.1174   -9.0422 C   0  0  0  0  0  0
    5.2253   18.6056   -6.8298 C   0  0  0  0  0  0
    5.6861   19.3335   -7.8469 C   0  0  0  0  0  0
    3.4597   16.8888   -6.7852 N   0  0  0  0  0  0
    2.7646   17.6587  -10.7218 O   0  0  0  0  0  0
    2.4486   16.1753   -7.5309 C   0  0  0  0  0  0
    2.9318   17.4835   -9.4873 C   0  0  0  0  0  0
    4.0889   17.8778   -7.3413 C   0  0  0  0  0  0
    2.2016   16.4625   -8.7846 N   0  0  0  0  0  0
    4.4250   20.4494  -12.6486 C   0  0  0  0  0  0
    2.7828   16.9580  -14.5735 C   0  0  0  0  0  0
    3.8909   19.2742  -13.4149 C   0  0  0  0  0  0
    4.1178   16.9669  -14.1374 C   0  0  0  0  0  0
    2.0091   18.1231  -14.4294 C   0  0  0  0  0  0
    4.6663   18.1141  -13.5577 C   0  0  0  0  0  0
    2.5647   19.2758  -13.8708 C   0  0  0  0  0  0
    2.1686   15.6678  -15.0637 C   0  0  0  0  0  0
    0.1034   14.7339  -15.9448 C   0  0  0  0  0  0
    1.3375   16.2141  -17.3070 C   0  0  0  0  0  0
    0.4946   15.3302  -18.2168 C   0  0  0  0  0  0
   -0.5453   14.7145  -17.3114 C   0  0  0  0  0  0
    0.9829   15.9085  -15.9103 N   0  0  0  0  0  0
  1  3  2  0  0  0
  2 15  1  0  0  0
  2  3  1  0  0  0
  2  4  1  0  0  0
  3  6  1  0  0  0
  5  6  2  0  0  0
  5 12  1  0  0  0
  5 13  1  0  0  0
  6  8  1  0  0  0
  7  8  2  0  0  0
  7 13  1  0  0  0
  9 11  1  0  0  0
  9 13  2  0  0  0
 10 12  2  0  0  0
 11 14  2  0  0  0
 12 14  1  0  0  0
 15 17  1  0  0  0
 16 18  2  0  0  0
 16 19  1  0  0  0
 16 22  1  0  0  0
 17 20  2  0  0  0
 17 21  1  0  0  0
 18 20  1  0  0  0
 19 21  2  0  0  0
 22 27  1  0  0  0
 23 26  1  0  0  0
 23 27  1  0  0  0
 24 25  1  0  0  0
 24 27  1  0  0  0
 25 26  1  0  0  0
M  END
> <s_m_entry_id>
866

> <s_m_entry_name>
10-myco-1_3_lig_gen_fit_add_gna.sdf.7

> <s_m_Source_Path>
C:\Users\maila\Downloads\mgr\myco-analysis

> <s_m_Source_File>
myco-10-var1-wzakresie.mae

> <i_m_Source_File_Index>
13

> <s_user_SMILES>
O=C1N=CN=C(C12)C=CC=2C(=O)NCc3ccc(cc3)CN4CCCC4

> <minimizedAffinity>
-8.13385

> <minimizedRMSD>
0.28275

> <CNNscore>
0.7889366746

> <CNNaffinity>
6.1261806488

> <CNN_VS>
4.8331685066

> <CNNaffinity_variance>
0.2696107924

$$$$
NC1CCN(CC1)Cc(cc2)ccc2CN[C@@]3(O)C(=C34)N=CC=5[C@H]4C(=O)N=CN5
                    3D
 Schrodinger Suite 2021-1.
 33 37  0  0  1  0            999 V2000
    4.1475   20.2480  -11.5592 C   0  0  0  0  0  0
    3.0964   17.0783  -13.4341 C   0  0  0  0  0  0
    2.6473   17.6099  -14.6525 C   0  0  0  0  0  0
    3.0009   19.8438  -13.7783 C   0  0  0  0  0  0
    3.4873   19.3206  -12.5662 C   0  0  0  0  0  0
    2.5622   18.9999  -14.8007 C   0  0  0  0  0  0
    3.5197   17.9253  -12.4048 C   0  0  0  0  0  0
    2.5266   16.7246  -15.8644 C   0  0  0  0  0  0
   -0.4176   14.3322  -15.7506 C   0  0  0  0  0  0
    0.9716   14.9210  -15.4645 C   0  0  0  0  0  0
    0.9468   16.1325  -17.5692 C   0  0  0  0  0  0
   -0.6548   14.2159  -17.2572 C   0  0  0  0  0  0
   -0.4410   15.5859  -17.9160 C   0  0  0  0  0  0
   -2.0044   13.7096  -17.5150 N   0  0  0  0  0  0
    1.1476   16.2426  -16.1035 N   0  0  2  0  0  0
   -2.7088   14.4218  -17.2116 H   0  0  0  0  0  0
   -2.1193   13.5784  -18.5463 H   0  0  0  0  0  0
    3.8907   19.9039  -10.1407 N   0  0  1  0  0  0
    2.9428   19.4650  -10.0663 H   0  0  0  0  0  0
    3.9457   16.9253   -7.8873 C   0  0  1  0  0  0
    4.4563   18.0325   -8.6876 C   0  0  0  0  0  0
    4.1962   17.3441   -6.4239 C   0  0  0  0  0  0
    2.5548   16.4920   -8.0890 C   0  0  0  0  0  0
    1.9088   15.8278   -6.9991 N   0  0  0  0  0  0
    2.0688   16.4562   -9.2462 O   0  0  0  0  0  0
    3.4964   16.7701   -5.4918 N   0  0  0  0  0  0
    4.9261   19.0315   -9.5493 C   0  0  1  0  0  0
    5.6608   19.3539   -6.8822 N   0  0  0  0  0  0
    6.0561   18.7218  -10.3165 O   0  0  0  0  0  0
    2.3967   15.8887   -5.7929 C   0  0  0  0  0  0
    5.2276   18.4270   -6.0402 C   0  0  0  0  0  0
    5.2090   19.1036   -8.1822 C   0  0  0  0  0  0
    6.6585   19.5097  -10.2602 H   0  0  0  0  0  0
  1  5  1  0  0  0
  1 18  1  0  0  0
  2  3  2  0  0  0
  2  7  1  0  0  0
  3  8  1  0  0  0
  3  6  1  0  0  0
  4  5  1  0  0  0
  4  6  2  0  0  0
  5  7  2  0  0  0
  8 15  1  0  0  0
  9 10  1  0  0  0
  9 12  1  0  0  0
 10 15  1  0  0  0
 11 13  1  0  0  0
 11 15  1  0  0  0
 12 13  1  0  0  0
 12 14  1  0  0  0
 14 16  1  0  0  0
 14 17  1  0  0  0
 18 27  1  0  0  0
 18 19  1  0  0  0
 20 21  1  0  0  0
 20 22  1  0  0  0
 20 23  1  0  0  0
 21 27  1  0  0  0
 21 32  2  0  0  0
 22 26  2  0  0  0
 22 31  1  0  0  0
 23 24  1  0  0  0
 23 25  2  0  0  0
 24 30  2  0  0  0
 26 30  1  0  0  0
 27 29  1  0  0  0
 27 32  1  0  0  0
 28 31  2  0  0  0
 28 32  1  0  0  0
 29 33  1  0  0  0
M  END
> <s_m_entry_id>
867

> <s_m_entry_name>
10-myco-1_3_lig_gen_fit_add_gna.sdf.9

> <s_m_Source_Path>
C:\Users\maila\Downloads\mgr\myco-analysis

> <s_m_Source_File>
myco-10-var1-wzakresie.mae

> <i_m_Source_File_Index>
14

> <s_user_SMILES>
NC1CCN(CC1)Cc(cc2)ccc2CN[C@@]3(O)C(=C34)N=CC=5[C@H]4C(=O)N=CN5

> <minimizedAffinity>
-8.14

> <minimizedRMSD>
0.66824

> <CNNscore>
0.8304280043

> <CNNaffinity>
6.1911497116

> <CNN_VS>
5.1413040161

> <CNNaffinity_variance>
0.1527532041

$$$$
O=C(O)[C@@H](O)C=C=C(C)C[C@@H]1[C@@H](O)[C@@H](O)[C@@H](O1)n(cn2)c(c23)ncnc3N
                    3D
 Schrodinger Suite 2021-1.
 33 35  0  0  1  0            999 V2000
  -25.2559  -18.1627   12.3283 O   0  0  0  0  0  0
  -24.4176  -19.6202   10.5878 C   0  0  2  0  0  0
  -23.5141  -20.9447   12.3337 O   0  0  0  0  0  0
  -24.0957  -18.6914   11.7326 C   0  0  2  0  0  0
  -23.3193  -19.5901   12.7047 C   0  0  2  0  0  0
  -25.6426  -19.3160    9.9738 O   0  0  0  0  0  0
  -24.4757  -20.9573   11.3027 C   0  0  2  0  0  0
  -25.7969  -18.9187   12.6731 H   0  0  0  0  0  0
  -25.4781  -18.5244    9.3984 H   0  0  0  0  0  0
  -21.3028  -18.0609   12.7759 C   0  0  0  0  0  0
  -19.1478  -17.0870   12.5925 C   0  0  0  0  0  0
  -17.7428  -17.1723   12.4010 N   0  0  0  0  0  0
  -21.8961  -16.8465   12.8879 N   0  0  0  0  0  0
  -19.6436  -19.4928   12.4859 N   0  0  0  0  0  0
  -21.0864  -15.7444   12.8586 C   0  0  0  0  0  0
  -19.7400  -15.8759   12.7153 N   0  0  0  0  0  0
  -21.8904  -19.2661   12.7113 N   0  0  0  0  0  0
  -19.9663  -18.2021   12.6278 C   0  0  0  0  0  0
  -20.8453  -20.1217   12.5810 C   0  0  0  0  0  0
  -17.1497  -16.3241   12.5211 H   0  0  0  0  0  0
  -17.3183  -18.0356   12.0156 H   0  0  0  0  0  0
  -24.2990  -22.1641   10.3733 C   0  0  0  0  0  0
  -22.8554  -21.6560    7.0888 C   0  0  0  0  0  0
  -22.9178  -21.9045    8.3733 C   0  0  0  0  0  0
  -22.9726  -22.2071    9.6491 C   0  0  0  0  0  0
  -21.8531  -23.0229   10.2200 C   0  0  0  0  0  0
  -24.1896  -19.6863    7.2124 O   0  0  0  0  0  0
  -23.1257  -20.2889    6.5215 C   0  0  2  0  0  0
  -24.1692  -18.7203    6.9873 H   0  0  0  0  0  0
  -22.4759  -20.3157    4.2201 O   0  0  0  0  0  0
  -24.7225  -20.5435    4.5614 O   0  0  0  0  0  0
  -23.4249  -20.3788    5.0444 C   0  0  0  0  0  0
  -25.5264  -20.5921    5.1732 H   0  0  0  0  0  0
  1  4  1  0  0  0
  1  8  1  0  0  0
  2  4  1  0  0  0
  2  6  1  0  0  0
  2  7  1  0  0  0
  3  5  1  0  0  0
  3  7  1  0  0  0
  4  5  1  0  0  0
  5 17  1  0  0  0
  6  9  1  0  0  0
  7 22  1  0  0  0
 10 13  2  0  0  0
 10 17  1  0  0  0
 10 18  1  0  0  0
 11 12  1  0  0  0
 11 16  1  0  0  0
 11 18  2  0  0  0
 12 20  1  0  0  0
 12 21  1  0  0  0
 13 15  1  0  0  0
 14 18  1  0  0  0
 14 19  2  0  0  0
 15 16  2  0  0  0
 17 19  1  0  0  0
 22 25  1  0  0  0
 23 24  2  0  0  0
 23 28  1  0  0  0
 24 25  2  0  0  0
 25 26  1  0  0  0
 27 28  1  0  0  0
 27 29  1  0  0  0
 28 32  1  0  0  0
 30 32  2  0  0  0
 31 32  1  0  0  0
 31 33  1  0  0  0
M  END
> <s_m_entry_id>
868

> <s_m_entry_name>
10-myco-1_4_lig_gen_fit_add_gna.sdf.1

> <s_m_Source_Path>
C:\Users\maila\Downloads\mgr\myco-analysis

> <s_m_Source_File>
myco-10-var1-wzakresie.mae

> <i_m_Source_File_Index>
15

> <s_user_SMILES>
O=C(O)[C@@H](O)C=C=C(C)C[C@@H]1[C@@H](O)[C@@H](O)[C@@H](O1)n(cn2)c(c23)ncnc3N

> <minimizedAffinity>
-10.97331

> <minimizedRMSD>
0.44911

> <CNNscore>
0.9265494943

> <CNNaffinity>
6.3707089424

> <CNN_VS>
5.902777195

> <CNNaffinity_variance>
0.0938627273

$$$$
OP[C@](C)(O)C[C@H]1[C@H](C1)C[C@]23[C@](O)([C@@H]2O)[C@@H](O3)n(cn4)c(c45)ncnc5N
                    3D
 Schrodinger Suite 2021-1.
 34 38  0  0  1  0            999 V2000
  -24.0362  -19.2267   11.6961 C   0  0  2  0  0  0
  -25.3327  -18.8203   12.0202 O   0  0  0  0  0  0
  -24.7238  -19.2313    9.3397 O   0  0  0  0  0  0
  -23.7572  -19.6000   10.3304 C   0  0  2  0  0  0
  -23.2168  -21.0540   12.3823 O   0  0  0  0  0  0
  -24.0966  -20.7842   11.2772 C   0  0  1  0  0  0
  -23.1794  -19.7274   12.8420 C   0  0  1  0  0  0
  -25.2717  -18.3142   12.8945 H   0  0  0  0  0  0
  -25.6236  -19.2971    9.7407 H   0  0  0  0  0  0
  -19.7652  -15.7557   12.7397 N   0  0  0  0  0  0
  -19.1583  -16.9502   12.7394 C   0  0  0  0  0  0
  -21.9142  -16.8340   12.8569 N   0  0  0  0  0  0
  -21.2814  -18.0289   12.7708 C   0  0  0  0  0  0
  -21.1276  -15.7003   12.7557 C   0  0  0  0  0  0
  -19.5755  -19.3623   12.5675 N   0  0  0  0  0  0
  -17.7467  -16.9829   12.6497 N   0  0  0  0  0  0
  -20.7255  -20.0582   12.5595 C   0  0  0  0  0  0
  -21.8065  -19.2652   12.7774 N   0  0  0  0  0  0
  -19.9426  -18.0975   12.7336 C   0  0  0  0  0  0
  -17.1439  -16.1425   12.8847 H   0  0  0  0  0  0
  -17.2551  -17.7860   12.1770 H   0  0  0  0  0  0
  -23.9113  -21.9923   10.2408 C   0  0  0  0  0  0
  -21.7667  -23.0513    8.7448 C   0  0  2  0  0  0
  -22.1734  -23.7505   10.0075 C   0  0  0  0  0  0
  -22.4227  -22.2888    9.9234 C   0  0  2  0  0  0
  -22.2333  -23.8568    7.4592 C   0  0  0  0  0  0
  -20.3452  -22.6942    6.4795 O   0  0  0  0  0  0
  -21.1650  -23.8271    6.3058 C   0  0  2  0  0  0
  -21.9115  -23.7798    4.9611 C   0  0  0  0  0  0
  -20.7165  -21.9930    5.9625 H   0  0  0  0  0  0
  -20.2203  -25.6948    4.6711 O   0  0  0  0  0  0
  -19.8449  -25.2962    6.3403 P   0  0  0  0  0  0
  -21.0051  -26.3432    4.7094 H   0  0  0  0  0  0
  -18.8186  -26.4077    6.3428 H   0  0  0  0  0  0
  1  2  1  0  0  0
  1  4  1  0  0  0
  1  6  1  0  0  0
  1  7  1  0  0  0
  2  8  1  0  0  0
  3  4  1  0  0  0
  3  9  1  0  0  0
  4  6  1  0  0  0
  5  6  1  0  0  0
  5  7  1  0  0  0
  6 22  1  0  0  0
  7 18  1  0  0  0
 10 11  2  0  0  0
 10 14  1  0  0  0
 11 16  1  0  0  0
 11 19  1  0  0  0
 12 13  1  0  0  0
 12 14  2  0  0  0
 13 18  1  0  0  0
 13 19  2  0  0  0
 15 17  2  0  0  0
 15 19  1  0  0  0
 16 20  1  0  0  0
 16 21  1  0  0  0
 17 18  1  0  0  0
 22 25  1  0  0  0
 23 24  1  0  0  0
 23 25  1  0  0  0
 23 26  1  0  0  0
 24 25  1  0  0  0
 26 28  1  0  0  0
 27 28  1  0  0  0
 27 30  1  0  0  0
 28 29  1  0  0  0
 28 32  1  0  0  0
 31 32  1  0  0  0
 31 33  1  0  0  0
 32 34  1  0  0  0
M  END
> <s_m_entry_id>
869

> <s_m_entry_name>
10-myco-1_4_lig_gen_fit_add_gna.sdf.2

> <s_m_Source_Path>
C:\Users\maila\Downloads\mgr\myco-analysis

> <s_m_Source_File>
myco-10-var1-wzakresie.mae

> <i_m_Source_File_Index>
16

> <s_user_SMILES>
OP[C@](C)(O)C[C@H]1[C@H](C1)C[C@]23[C@](O)([C@@H]2O)[C@@H](O3)n(cn4)c(c45)ncnc5N

> <minimizedAffinity>
-9.99929

> <minimizedRMSD>
1.07573

> <CNNscore>
0.9822255373

> <CNNaffinity>
6.4611458778

> <CNN_VS>
6.3463025093

> <CNNaffinity_variance>
0.0539750382

$$$$
O=C(O)/C(=N\[H])C=C=C(C)C[C@@H]1[C@@H](O)[C@@H](O)[C@H](O1)n(cn2)c(c23)ncnc3N
                    3D
 Schrodinger Suite 2021-1.
 33 35  0  0  1  0            999 V2000
  -26.1897  -19.3501   11.2402 O   0  0  0  0  0  0
  -23.9140  -18.8280   11.6817 C   0  0  2  0  0  0
  -24.3625  -18.2443   12.8802 O   0  0  0  0  0  0
  -24.8943  -19.7853   11.0964 C   0  0  1  0  0  0
  -23.3349  -20.9536   12.4767 O   0  0  0  0  0  0
  -22.7902  -19.8104   11.8704 C   0  0  2  0  0  0
  -24.6101  -21.0742   11.8706 C   0  0  2  0  0  0
  -26.7249  -20.0093   10.7274 H   0  0  0  0  0  0
  -24.5181  -18.9697   13.5326 H   0  0  0  0  0  0
  -21.0662  -18.1151   12.8011 C   0  0  0  0  0  0
  -20.8340  -15.7955   12.6707 C   0  0  0  0  0  0
  -19.7199  -18.2226   12.9530 C   0  0  0  0  0  0
  -21.5799  -19.3410   12.5407 N   0  0  0  0  0  0
  -21.6386  -16.9043   12.5900 N   0  0  0  0  0  0
  -19.5043  -15.9054   12.9484 N   0  0  0  0  0  0
  -20.4723  -20.1027   12.4299 C   0  0  0  0  0  0
  -19.3123  -19.4458   12.6579 N   0  0  0  0  0  0
  -17.5231  -17.2384   13.3623 N   0  0  0  0  0  0
  -18.9200  -17.1165   13.1004 C   0  0  0  0  0  0
  -16.9281  -16.3951   13.4738 H   0  0  0  0  0  0
  -17.0956  -18.1691   13.5557 H   0  0  0  0  0  0
  -24.6910  -22.2956   10.9569 C   0  0  0  0  0  0
  -23.0676  -21.9931    7.6559 C   0  0  0  0  0  0
  -23.4115  -22.5619   10.1903 C   0  0  0  0  0  0
  -22.3893  -23.4928   10.7656 C   0  0  0  0  0  0
  -23.2835  -22.2284    8.9263 C   0  0  0  0  0  0
  -23.2287  -20.6625    7.0352 C   0  0  0  0  0  0
  -24.0484  -19.8032    7.5527 N   0  0  0  0  0  0
  -24.1945  -18.8408    7.1786 H   0  0  0  0  0  0
  -21.3645  -20.9404    5.6044 O   0  0  0  0  0  0
  -22.8728  -19.3809    4.8973 O   0  0  0  0  0  0
  -22.4476  -20.3366    5.8197 C   0  0  0  0  0  0
  -23.7747  -18.9269    4.9552 H   0  0  0  0  0  0
  1  4  1  0  0  0
  1  8  1  0  0  0
  2  3  1  0  0  0
  2  4  1  0  0  0
  2  6  1  0  0  0
  3  9  1  0  0  0
  4  7  1  0  0  0
  5  6  1  0  0  0
  5  7  1  0  0  0
  6 13  1  0  0  0
  7 22  1  0  0  0
 10 12  2  0  0  0
 10 13  1  0  0  0
 10 14  1  0  0  0
 11 14  2  0  0  0
 11 15  1  0  0  0
 12 17  1  0  0  0
 12 19  1  0  0  0
 13 16  1  0  0  0
 15 19  2  0  0  0
 16 17  2  0  0  0
 18 19  1  0  0  0
 18 20  1  0  0  0
 18 21  1  0  0  0
 22 24  1  0  0  0
 23 27  1  0  0  0
 23 26  2  0  0  0
 24 25  1  0  0  0
 24 26  2  0  0  0
 27 32  1  0  0  0
 27 28  2  0  0  0
 28 29  1  0  0  0
 30 32  2  0  0  0
 31 32  1  0  0  0
 31 33  1  0  0  0
M  END
> <s_m_entry_id>
870

> <s_m_entry_name>
10-myco-1_4_lig_gen_fit_add_gna.sdf.3

> <s_m_Source_Path>
C:\Users\maila\Downloads\mgr\myco-analysis

> <s_m_Source_File>
myco-10-var1-wzakresie.mae

> <i_m_Source_File_Index>
17

> <s_user_SMILES>
O=C(O)/C(=N\[H])C=C=C(C)C[C@@H]1[C@@H](O)[C@@H](O)[C@H](O1)n(cn2)c(c23)ncnc3N

> <minimizedAffinity>
-10.20313

> <minimizedRMSD>
0.77637

> <CNNscore>
0.8488513827

> <CNNaffinity>
6.3500127792

> <CNN_VS>
5.3902173042

> <CNNaffinity_variance>
0.0755615085

$$$$
O=C(O)[C@@H](O)C[C@H](C)C[C@@H]1[C@@H](O)[C@@H](O)[C@@H](O1)n(cn2)c(c23)ncnc3N
                    3D
 Schrodinger Suite 2021-1.
 32 34  0  0  1  0            999 V2000
  -25.4532  -19.3959    9.7339 O   0  0  0  0  0  0
  -25.2409  -18.2006   12.0638 O   0  0  0  0  0  0
  -24.2700  -19.6930   10.4305 C   0  0  2  0  0  0
  -23.5191  -20.9479   12.3064 O   0  0  0  0  0  0
  -24.3694  -21.0122   11.1801 C   0  0  2  0  0  0
  -24.0365  -18.7262   11.5598 C   0  0  2  0  0  0
  -23.3142  -19.5784   12.6069 C   0  0  2  0  0  0
  -25.3298  -19.7265    8.8072 H   0  0  0  0  0  0
  -25.7839  -18.9548   12.4100 H   0  0  0  0  0  0
  -21.2957  -18.0638   12.7405 C   0  0  0  0  0  0
  -21.8926  -16.8498   12.8381 N   0  0  0  0  0  0
  -19.9563  -18.2047   12.6281 C   0  0  0  0  0  0
  -17.7287  -17.1714   12.4630 N   0  0  0  0  0  0
  -19.6303  -19.4953   12.4910 N   0  0  0  0  0  0
  -21.8825  -19.2678   12.6548 N   0  0  0  0  0  0
  -21.0846  -15.7469   12.8303 C   0  0  0  0  0  0
  -20.8346  -20.1243   12.5511 C   0  0  0  0  0  0
  -19.7349  -15.8777   12.7228 N   0  0  0  0  0  0
  -19.1382  -17.0883   12.6162 C   0  0  0  0  0  0
  -17.1406  -16.3215   12.5957 H   0  0  0  0  0  0
  -17.2932  -18.0352   12.0920 H   0  0  0  0  0  0
  -24.0602  -22.2352   10.2978 C   0  0  0  0  0  0
  -21.7607  -23.2578   10.0527 C   0  0  0  0  0  0
  -22.7038  -22.1581    9.5373 C   0  0  1  0  0  0
  -22.8713  -22.3109    8.0027 C   0  0  0  0  0  0
  -24.3135  -20.6492    6.9929 O   0  0  0  0  0  0
  -22.9731  -20.9712    7.2482 C   0  0  2  0  0  0
  -24.3624  -19.6633    6.8847 H   0  0  0  0  0  0
  -22.0688  -22.0407    5.2820 O   0  0  0  0  0  0
  -21.6630  -19.7972    5.4587 O   0  0  0  0  0  0
  -22.2044  -20.9807    5.9504 C   0  0  0  0  0  0
  -21.7522  -18.9263    5.9692 H   0  0  0  0  0  0
  1  3  1  0  0  0
  1  8  1  0  0  0
  2  6  1  0  0  0
  2  9  1  0  0  0
  3  5  1  0  0  0
  3  6  1  0  0  0
  4  5  1  0  0  0
  4  7  1  0  0  0
  5 22  1  0  0  0
  6  7  1  0  0  0
  7 15  1  0  0  0
 10 11  2  0  0  0
 10 12  1  0  0  0
 10 15  1  0  0  0
 11 16  1  0  0  0
 12 14  1  0  0  0
 12 19  2  0  0  0
 13 19  1  0  0  0
 13 20  1  0  0  0
 13 21  1  0  0  0
 14 17  2  0  0  0
 15 17  1  0  0  0
 16 18  2  0  0  0
 18 19  1  0  0  0
 22 24  1  0  0  0
 23 24  1  0  0  0
 24 25  1  0  0  0
 25 27  1  0  0  0
 26 27  1  0  0  0
 26 28  1  0  0  0
 27 31  1  0  0  0
 29 31  2  0  0  0
 30 31  1  0  0  0
 30 32  1  0  0  0
M  END
> <s_m_entry_id>
871

> <s_m_entry_name>
10-myco-1_4_lig_gen_fit_add_gna.sdf.5

> <s_m_Source_Path>
C:\Users\maila\Downloads\mgr\myco-analysis

> <s_m_Source_File>
myco-10-var1-wzakresie.mae

> <i_m_Source_File_Index>
18

> <s_user_SMILES>
O=C(O)[C@@H](O)C[C@H](C)C[C@@H]1[C@@H](O)[C@@H](O)[C@@H](O1)n(cn2)c(c23)ncnc3N

> <minimizedAffinity>
-10.09932

> <minimizedRMSD>
0.70669

> <CNNscore>
0.9366753101

> <CNNaffinity>
6.2989797592

> <CNN_VS>
5.9000988007

> <CNNaffinity_variance>
0.1142108217

$$$$
O=C(O)[C@H](O)C[C@H](C)C[C@@H]1[C@@H](O)[C@@H](O)[C@@H](O1)n(cn2)c(c23)ncnc3N
                    3D
 Schrodinger Suite 2021-1.
 32 34  0  0  1  0            999 V2000
  -25.5407  -19.1819    9.8935 O   0  0  0  0  0  0
  -25.3137  -18.2233   12.3378 O   0  0  0  0  0  0
  -24.1078  -18.6621   11.7586 C   0  0  2  0  0  0
  -23.5397  -20.9305   12.2787 O   0  0  0  0  0  0
  -24.3419  -19.5211   10.5426 C   0  0  1  0  0  0
  -23.3392  -19.5917   12.6999 C   0  0  1  0  0  0
  -24.4032  -20.9075   11.1591 C   0  0  1  0  0  0
  -25.4396  -19.4587    8.9463 H   0  0  0  0  0  0
  -25.8158  -19.0206   12.6471 H   0  0  0  0  0  0
  -21.3237  -18.0574   12.7921 C   0  0  0  0  0  0
  -19.9865  -18.1923   12.6437 C   0  0  0  0  0  0
  -21.9211  -16.8441   12.8990 N   0  0  0  0  0  0
  -19.1729  -17.0732   12.5994 C   0  0  0  0  0  0
  -19.7700  -15.8640   12.7161 N   0  0  0  0  0  0
  -21.9079  -19.2659   12.7265 N   0  0  0  0  0  0
  -21.1164  -15.7383   12.8622 C   0  0  0  0  0  0
  -19.6581  -19.4811   12.5042 N   0  0  0  0  0  0
  -17.7690  -17.1529   12.3998 N   0  0  0  0  0  0
  -20.8564  -20.1157   12.6017 C   0  0  0  0  0  0
  -17.1790  -16.3001   12.5043 H   0  0  0  0  0  0
  -17.3441  -18.0183   12.0199 H   0  0  0  0  0  0
  -24.0956  -22.0387   10.1493 C   0  0  0  0  0  0
  -21.7091  -22.8467    9.9197 C   0  0  0  0  0  0
  -22.7665  -21.8786    9.3540 C   0  0  1  0  0  0
  -22.8992  -22.1800    7.8350 C   0  0  0  0  0  0
  -23.4593  -19.8484    7.6818 O   0  0  0  0  0  0
  -23.4420  -21.0357    6.9545 C   0  0  1  0  0  0
  -24.0576  -19.2181    7.1999 H   0  0  0  0  0  0
  -21.7635  -19.8772    5.6534 O   0  0  0  0  0  0
  -22.7415  -21.6629    4.6168 O   0  0  0  0  0  0
  -22.5890  -20.8272    5.7202 C   0  0  0  0  0  0
  -23.4010  -22.4316    4.6256 H   0  0  0  0  0  0
  1  5  1  0  0  0
  1  8  1  0  0  0
  2  3  1  0  0  0
  2  9  1  0  0  0
  3  5  1  0  0  0
  3  6  1  0  0  0
  4  6  1  0  0  0
  4  7  1  0  0  0
  5  7  1  0  0  0
  6 15  1  0  0  0
  7 22  1  0  0  0
 10 11  2  0  0  0
 10 12  1  0  0  0
 10 15  1  0  0  0
 11 13  1  0  0  0
 11 17  1  0  0  0
 12 16  2  0  0  0
 13 14  2  0  0  0
 13 18  1  0  0  0
 14 16  1  0  0  0
 15 19  1  0  0  0
 17 19  2  0  0  0
 18 20  1  0  0  0
 18 21  1  0  0  0
 22 24  1  0  0  0
 23 24  1  0  0  0
 24 25  1  0  0  0
 25 27  1  0  0  0
 26 27  1  0  0  0
 26 28  1  0  0  0
 27 31  1  0  0  0
 29 31  2  0  0  0
 30 31  1  0  0  0
 30 32  1  0  0  0
M  END
> <s_m_entry_id>
872

> <s_m_entry_name>
10-myco-1_4_lig_gen_fit_add_gna.sdf.7

> <s_m_Source_Path>
C:\Users\maila\Downloads\mgr\myco-analysis

> <s_m_Source_File>
myco-10-var1-wzakresie.mae

> <i_m_Source_File_Index>
19

> <s_user_SMILES>
O=C(O)[C@H](O)C[C@H](C)C[C@@H]1[C@@H](O)[C@@H](O)[C@@H](O1)n(cn2)c(c23)ncnc3N

> <minimizedAffinity>
-10.00781

> <minimizedRMSD>
1.22224

> <CNNscore>
0.9432765245

> <CNNaffinity>
6.2668576241

> <CNN_VS>
5.9113798141

> <CNNaffinity_variance>
0.0617678091

$$$$
O=C(O)[C@@H](O)CC[C@H](C)C[C@@H]1[C@@H](O)[C@@H](O)[C@@H](O1)n(cn2)c(c23)ncnc3N
                    3D
 Schrodinger Suite 2021-1.
 33 35  0  0  1  0            999 V2000
  -23.5304  -20.9439   12.2088 O   0  0  0  0  0  0
  -25.4802  -19.2186    9.7690 O   0  0  0  0  0  0
  -25.3968  -18.4050   12.2919 O   0  0  0  0  0  0
  -24.1484  -18.6771   11.7141 C   0  0  2  0  0  0
  -24.3104  -19.5159   10.4870 C   0  0  1  0  0  0
  -24.3538  -20.9187   11.0658 C   0  0  1  0  0  0
  -23.3416  -19.6037   12.6263 C   0  0  2  0  0  0
  -25.2737  -18.4275    9.2068 H   0  0  0  0  0  0
  -25.6922  -17.5316   11.9266 H   0  0  0  0  0  0
  -19.1542  -17.1241   12.6100 C   0  0  0  0  0  0
  -21.0918  -15.7679   12.8210 C   0  0  0  0  0  0
  -21.3204  -18.0815   12.7134 C   0  0  0  0  0  0
  -17.7440  -17.2187   12.4673 N   0  0  0  0  0  0
  -19.7422  -15.9090   12.7202 N   0  0  0  0  0  0
  -21.9078  -16.8641   12.8207 N   0  0  0  0  0  0
  -19.6641  -19.5264   12.4706 N   0  0  0  0  0  0
  -19.9814  -18.2332   12.6086 C   0  0  0  0  0  0
  -21.9145  -19.2803   12.6184 N   0  0  0  0  0  0
  -20.8733  -20.1464   12.5189 C   0  0  0  0  0  0
  -17.1504  -16.3781   12.6285 H   0  0  0  0  0  0
  -17.3107  -18.0764   12.0775 H   0  0  0  0  0  0
  -23.9882  -22.0652   10.0926 C   0  0  0  0  0  0
  -22.9075  -21.7702    9.0013 C   0  0  1  0  0  0
  -22.0143  -23.0093    8.8136 C   0  0  0  0  0  0
  -23.5774  -21.3245    7.6609 C   0  0  0  0  0  0
  -22.6406  -21.0197    6.4757 C   0  0  0  0  0  0
  -23.3331  -20.1057    5.4406 C   0  0  2  0  0  0
  -24.7144  -20.3446    5.4059 O   0  0  0  0  0  0
  -25.1352  -19.5542    4.9759 H   0  0  0  0  0  0
  -22.2924  -19.3270    3.4380 O   0  0  0  0  0  0
  -22.8282  -21.5536    3.4454 O   0  0  0  0  0  0
  -22.7709  -20.3076    4.0649 C   0  0  0  0  0  0
  -23.2565  -22.3512    3.8989 H   0  0  0  0  0  0
  1  6  1  0  0  0
  1  7  1  0  0  0
  2  5  1  0  0  0
  2  8  1  0  0  0
  3  4  1  0  0  0
  3  9  1  0  0  0
  4  5  1  0  0  0
  4  7  1  0  0  0
  5  6  1  0  0  0
  6 22  1  0  0  0
  7 18  1  0  0  0
 10 13  1  0  0  0
 10 14  2  0  0  0
 10 17  1  0  0  0
 11 14  1  0  0  0
 11 15  2  0  0  0
 12 15  1  0  0  0
 12 17  2  0  0  0
 12 18  1  0  0  0
 13 20  1  0  0  0
 13 21  1  0  0  0
 16 17  1  0  0  0
 16 19  2  0  0  0
 18 19  1  0  0  0
 22 23  1  0  0  0
 23 24  1  0  0  0
 23 25  1  0  0  0
 25 26  1  0  0  0
 26 27  1  0  0  0
 27 32  1  0  0  0
 27 28  1  0  0  0
 28 29  1  0  0  0
 30 32  2  0  0  0
 31 32  1  0  0  0
 31 33  1  0  0  0
M  END
> <s_m_entry_id>
873

> <s_m_entry_name>
10-myco-1_4_lig_gen_fit_add_gna.sdf.8

> <s_m_Source_Path>
C:\Users\maila\Downloads\mgr\myco-analysis

> <s_m_Source_File>
myco-10-var1-wzakresie.mae

> <i_m_Source_File_Index>
20

> <s_user_SMILES>
O=C(O)[C@@H](O)CC[C@H](C)C[C@@H]1[C@@H](O)[C@@H](O)[C@@H](O1)n(cn2)c(c23)ncnc3N

> <minimizedAffinity>
-10.21153

> <minimizedRMSD>
0.4007

> <CNNscore>
0.9308505058

> <CNNaffinity>
6.4962706566

> <CNN_VS>
6.047056675

> <CNNaffinity_variance>
0.0339141712

$$$$
O=C(O)[C@@H](O)C[C@H](C)C[C@@]12[C@](O2)([C@H](O)[C@@H]1O)n(cn3)c(c34)ncnc4N
                    3D
 Schrodinger Suite 2021-1.
 32 35  0  0  1  0            999 V2000
  -25.2584  -18.5401   12.1268 O   0  0  0  0  0  0
  -25.6322  -20.5033   10.4365 O   0  0  0  0  0  0
  -24.3183  -20.0364   10.4569 C   0  0  1  0  0  0
  -23.7617  -21.0568   12.6587 O   0  0  0  0  0  0
  -24.0913  -18.9091   11.4531 C   0  0  2  0  0  0
  -23.4201  -20.9204   11.2944 C   0  0  2  0  0  0
  -23.2260  -19.8196   12.3124 C   0  0  2  0  0  0
  -25.6484  -17.7925   11.6064 H   0  0  0  0  0  0
  -25.6183  -21.3565    9.9310 H   0  0  0  0  0  0
  -21.2859  -18.2799   12.6782 C   0  0  0  0  0  0
  -19.8509  -15.9945   12.7156 N   0  0  0  0  0  0
  -20.7047  -20.2989   12.4198 C   0  0  0  0  0  0
  -17.7681  -17.1670   12.4951 N   0  0  0  0  0  0
  -19.9377  -18.3357   12.5951 C   0  0  0  0  0  0
  -21.2093  -15.9508   12.7822 C   0  0  0  0  0  0
  -19.1836  -17.1697   12.6147 C   0  0  0  0  0  0
  -21.9518  -17.1004   12.7549 N   0  0  0  0  0  0
  -21.8068  -19.5132   12.5436 N   0  0  0  0  0  0
  -19.5399  -19.5965   12.4061 N   0  0  0  0  0  0
  -17.2673  -18.0005   12.1378 H   0  0  0  0  0  0
  -17.2365  -16.2819   12.6402 H   0  0  0  0  0  0
  -22.8828  -22.2885   10.8255 C   0  0  0  0  0  0
  -22.1845  -22.2358    9.4492 C   0  0  1  0  0  0
  -21.2026  -23.4097    9.3071 C   0  0  0  0  0  0
  -23.1962  -22.2437    8.2714 C   0  0  0  0  0  0
  -24.1125  -20.6961    6.6387 O   0  0  0  0  0  0
  -22.9176  -21.1356    7.2245 C   0  0  2  0  0  0
  -24.5125  -20.0271    7.2540 H   0  0  0  0  0  0
  -21.2321  -20.6335    5.4561 O   0  0  0  0  0  0
  -21.9789  -21.5776    6.1374 C   0  0  0  0  0  0
  -21.8940  -22.7858    5.7926 O   0  0  0  0  0  0
  -21.2938  -19.6494    5.6785 H   0  0  0  0  0  0
  1  5  1  0  0  0
  1  8  1  0  0  0
  2  3  1  0  0  0
  2  9  1  0  0  0
  3  5  1  0  0  0
  3  6  1  0  0  0
  4  6  1  0  0  0
  4  7  1  0  0  0
  5  7  1  0  0  0
  6 22  1  0  0  0
  6  7  1  0  0  0
  7 18  1  0  0  0
 10 14  2  0  0  0
 10 17  1  0  0  0
 10 18  1  0  0  0
 11 15  1  0  0  0
 11 16  2  0  0  0
 12 18  1  0  0  0
 12 19  2  0  0  0
 13 16  1  0  0  0
 13 20  1  0  0  0
 13 21  1  0  0  0
 14 16  1  0  0  0
 14 19  1  0  0  0
 15 17  2  0  0  0
 22 23  1  0  0  0
 23 24  1  0  0  0
 23 25  1  0  0  0
 25 27  1  0  0  0
 26 27  1  0  0  0
 26 28  1  0  0  0
 27 30  1  0  0  0
 29 30  1  0  0  0
 29 32  1  0  0  0
 30 31  2  0  0  0
M  END
> <s_m_entry_id>
874

> <s_m_entry_name>
10-myco-1_4_lig_gen_fit_add_gna.sdf.9

> <s_m_Source_Path>
C:\Users\maila\Downloads\mgr\myco-analysis

> <s_m_Source_File>
myco-10-var1-wzakresie.mae

> <i_m_Source_File_Index>
21

> <s_user_SMILES>
O=C(O)[C@@H](O)C[C@H](C)C[C@@]12[C@](O2)([C@H](O)[C@@H]1O)n(cn3)c(c34)ncnc4N

> <minimizedAffinity>
-9.76171

> <minimizedRMSD>
0.62828

> <CNNscore>
0.9364765286

> <CNNaffinity>
6.2967429161

> <CNN_VS>
5.8967518806

> <CNNaffinity_variance>
0.1657473594

$$$$
O=P(O)(O)OCC[C@H](C)C[C@@H]1[C@@H](O)[C@@H](O)[C@@H](O1)n(cn2)c(c23)ncnc3N
                    3D
 Schrodinger Suite 2021-1.
 33 35  0  0  1  0            999 V2000
  -25.3086  -18.2449   12.2881 O   0  0  0  0  0  0
  -25.3275  -19.1592    9.7215 O   0  0  0  0  0  0
  -23.5412  -20.9496   12.3137 O   0  0  0  0  0  0
  -24.0777  -18.6738   11.7540 C   0  0  2  0  0  0
  -24.2526  -19.5479   10.5401 C   0  0  1  0  0  0
  -23.3281  -19.6033   12.7147 C   0  0  2  0  0  0
  -24.4025  -20.9207   11.1926 C   0  0  1  0  0  0
  -25.7884  -19.0345   12.6468 H   0  0  0  0  0  0
  -26.1660  -19.4584   10.1463 H   0  0  0  0  0  0
  -19.9796  -18.2109   12.6224 C   0  0  0  0  0  0
  -19.1690  -17.0899   12.5772 C   0  0  0  0  0  0
  -17.7647  -17.1656   12.3794 N   0  0  0  0  0  0
  -20.8472  -20.1359   12.5852 C   0  0  0  0  0  0
  -21.3146  -18.0791   12.7888 C   0  0  0  0  0  0
  -19.7681  -15.8827   12.7037 N   0  0  0  0  0  0
  -19.6509  -19.4991   12.4739 N   0  0  0  0  0  0
  -21.9152  -16.8682   12.9030 N   0  0  0  0  0  0
  -21.1134  -15.7602   12.8616 C   0  0  0  0  0  0
  -21.8959  -19.2883   12.7383 N   0  0  0  0  0  0
  -17.1778  -16.3106   12.4810 H   0  0  0  0  0  0
  -17.3333  -18.0358   12.0190 H   0  0  0  0  0  0
  -24.1434  -22.0924   10.2303 C   0  0  0  0  0  0
  -22.7135  -22.0905    9.6073 C   0  0  1  0  0  0
  -21.9589  -23.3265   10.1066 C   0  0  0  0  0  0
  -22.6536  -22.0918    8.0651 C   0  0  0  0  0  0
  -23.6558  -21.1840    7.3577 C   0  0  0  0  0  0
  -23.0387  -20.0147    6.8776 O   0  0  0  0  0  0
  -20.9747  -20.4089    5.3627 O   0  0  0  0  0  0
  -23.1454  -21.6851    4.6114 O   0  0  0  0  0  0
  -22.4747  -20.2828    5.2923 P   0  0  0  0  0  0
  -22.8700  -18.9613    4.3231 O   0  0  0  0  0  0
  -22.7794  -21.7251    3.6924 H   0  0  0  0  0  0
  -23.5872  -19.2911    3.7255 H   0  0  0  0  0  0
  1  4  1  0  0  0
  1  8  1  0  0  0
  2  5  1  0  0  0
  2  9  1  0  0  0
  3  6  1  0  0  0
  3  7  1  0  0  0
  4  5  1  0  0  0
  4  6  1  0  0  0
  5  7  1  0  0  0
  6 19  1  0  0  0
  7 22  1  0  0  0
 10 11  2  0  0  0
 10 14  1  0  0  0
 10 16  1  0  0  0
 11 12  1  0  0  0
 11 15  1  0  0  0
 12 20  1  0  0  0
 12 21  1  0  0  0
 13 16  2  0  0  0
 13 19  1  0  0  0
 14 17  2  0  0  0
 14 19  1  0  0  0
 15 18  2  0  0  0
 17 18  1  0  0  0
 22 23  1  0  0  0
 23 25  1  0  0  0
 23 24  1  0  0  0
 25 26  1  0  0  0
 26 27  1  0  0  0
 27 30  1  0  0  0
 28 30  2  0  0  0
 29 30  1  0  0  0
 29 32  1  0  0  0
 30 31  1  0  0  0
 31 33  1  0  0  0
M  END
> <s_m_entry_id>
875

> <s_m_entry_name>
10-myco-1_4_lig_gen_fit_add_gna.sdf.10

> <s_m_Source_Path>
C:\Users\maila\Downloads\mgr\myco-analysis

> <s_m_Source_File>
myco-10-var1-wzakresie.mae

> <i_m_Source_File_Index>
22

> <s_user_SMILES>
O=P(O)(O)OCC[C@H](C)C[C@@H]1[C@@H](O)[C@@H](O)[C@@H](O1)n(cn2)c(c23)ncnc3N

> <minimizedAffinity>
-10.00561

> <minimizedRMSD>
0.86957

> <CNNscore>
0.9087747335

> <CNNaffinity>
6.3565125465

> <CNN_VS>
5.776638031

> <CNNaffinity_variance>
0.130268693

$$$$
OC[C@@H](N)C#CC[C@H](C12OO2)O[C@H]([C@@H]1O)n(cn3)c(c34)ncnc4N
                    3D
 Schrodinger Suite 2021-1.
 31 34  0  0  1  0            999 V2000
  -23.4568  -21.2320   12.7304 O   0  0  0  0  0  0
  -23.9219  -19.4169   11.1507 C   0  0  2  0  0  0
  -24.5162  -20.7048   10.7295 C   0  0  0  0  0  0
  -23.3424  -19.8289   12.5112 C   0  0  2  0  0  0
  -25.8615  -20.6619   10.4479 O   0  0  0  0  0  0
  -24.1126  -21.8384   11.6359 C   0  0  1  0  0  0
  -24.8841  -18.4037   11.3061 O   0  0  0  0  0  0
  -24.9819  -20.8889    9.4524 O   0  0  0  0  0  0
  -25.0470  -18.0276   10.4018 H   0  0  0  0  0  0
  -17.9900  -16.9724   12.3431 N   0  0  0  0  0  0
  -20.1140  -15.8570   12.6692 N   0  0  0  0  0  0
  -22.1616  -17.0536   12.8491 N   0  0  0  0  0  0
  -21.4537  -18.1963   12.7367 C   0  0  0  0  0  0
  -21.4750  -15.8781   12.8219 C   0  0  0  0  0  0
  -19.4034  -17.0118   12.5296 C   0  0  0  0  0  0
  -19.6989  -19.4483   12.2554 N   0  0  0  0  0  0
  -21.9399  -19.4335   12.6051 N   0  0  0  0  0  0
  -20.8467  -20.1786   12.3092 C   0  0  0  0  0  0
  -20.1125  -18.2071   12.5596 C   0  0  0  0  0  0
  -17.4854  -16.0599   12.3183 H   0  0  0  0  0  0
  -17.4381  -17.8495   12.2485 H   0  0  0  0  0  0
  -23.1807  -22.9285   11.0320 C   0  0  0  0  0  0
  -22.2745  -22.4815    8.5555 C   0  0  0  0  0  0
  -22.6861  -22.6693    9.6728 C   0  0  0  0  0  0
  -21.7803  -22.2648    7.1840 C   0  0  2  0  0  0
  -22.7394  -22.7701    6.1998 N   0  0  0  0  0  0
  -22.9555  -23.7742    6.4015 H   0  0  0  0  0  0
  -23.6355  -22.2453    6.3125 H   0  0  0  0  0  0
  -20.4420  -23.9245    6.0061 O   0  0  0  0  0  0
  -20.4039  -22.9187    6.9847 C   0  0  0  0  0  0
  -21.0036  -24.6579    6.3671 H   0  0  0  0  0  0
  1  4  1  0  0  0
  1  6  1  0  0  0
  2  3  1  0  0  0
  2  4  1  0  0  0
  2  7  1  0  0  0
  3  5  1  0  0  0
  3  6  1  0  0  0
  3  8  1  0  0  0
  4 17  1  0  0  0
  5  8  1  0  0  0
  6 22  1  0  0  0
  7  9  1  0  0  0
 10 15  1  0  0  0
 10 20  1  0  0  0
 10 21  1  0  0  0
 11 14  2  0  0  0
 11 15  1  0  0  0
 12 13  2  0  0  0
 12 14  1  0  0  0
 13 17  1  0  0  0
 13 19  1  0  0  0
 15 19  2  0  0  0
 16 18  2  0  0  0
 16 19  1  0  0  0
 17 18  1  0  0  0
 22 24  1  0  0  0
 23 25  1  0  0  0
 23 24  3  0  0  0
 25 26  1  0  0  0
 25 30  1  0  0  0
 26 27  1  0  0  0
 26 28  1  0  0  0
 29 30  1  0  0  0
 29 31  1  0  0  0
M  END
> <s_m_entry_id>
876

> <s_m_entry_name>
10-myco-1_5_lig_gen_fit_add_gna.sdf.1

> <s_m_Source_Path>
C:\Users\maila\Downloads\mgr\myco-analysis

> <s_m_Source_File>
myco-10-var1-wzakresie.mae

> <i_m_Source_File_Index>
23

> <s_user_SMILES>
OC[C@@H](N)C#CC[C@H](C12OO2)O[C@H]([C@@H]1O)n(cn3)c(c34)ncnc4N

> <minimizedAffinity>
-9.7945

> <minimizedRMSD>
1.39417

> <CNNscore>
0.9822198749

> <CNNaffinity>
6.2809925079

> <CNN_VS>
6.169315815

> <CNNaffinity_variance>
0.1026010141

$$$$
C[C@@H](O)[C@H](N)C#CCC[C@H](C1=O)O[C@H]([C@@H]1O)n(cn2)c(c23)ncnc3N
                    3D
 Schrodinger Suite 2021-1.
 32 34  0  0  1  0            999 V2000
  -25.0203  -18.0493   11.9474 O   0  0  0  0  0  0
  -23.4555  -21.0113   12.5676 O   0  0  0  0  0  0
  -24.0249  -18.9228   11.4973 C   0  0  2  0  0  0
  -25.3120  -19.9612    9.8131 O   0  0  0  0  0  0
  -24.6515  -20.0465   10.8371 C   0  0  0  0  0  0
  -23.3097  -19.6038   12.6711 C   0  0  2  0  0  0
  -24.5083  -21.2549   11.6578 C   0  0  1  0  0  0
  -24.5564  -17.3774   12.5046 H   0  0  0  0  0  0
  -22.0478  -16.8243   12.9519 N   0  0  0  0  0  0
  -21.3816  -17.9918   12.7784 C   0  0  0  0  0  0
  -20.0475  -18.0378   12.5592 C   0  0  0  0  0  0
  -19.9682  -15.7011   12.7412 N   0  0  0  0  0  0
  -19.6608  -19.2961   12.3064 N   0  0  0  0  0  0
  -21.3149  -15.6696   12.9325 C   0  0  0  0  0  0
  -17.9015  -16.8430   12.3174 N   0  0  0  0  0  0
  -19.3035  -16.8652   12.5452 C   0  0  0  0  0  0
  -21.8958  -19.2283   12.7007 N   0  0  0  0  0  0
  -20.8187  -20.0044   12.4179 C   0  0  0  0  0  0
  -17.3690  -15.9561   12.4428 H   0  0  0  0  0  0
  -17.4158  -17.6673   11.9236 H   0  0  0  0  0  0
  -24.3199  -22.5437   10.8446 C   0  0  0  0  0  0
  -22.8888  -23.0960   10.7578 C   0  0  0  0  0  0
  -21.7550  -22.8242    8.3602 C   0  0  0  0  0  0
  -22.2987  -22.9266    9.4296 C   0  0  0  0  0  0
  -20.5202  -24.0646    6.7357 N   0  0  0  0  0  0
  -21.0551  -22.7424    7.0684 C   0  0  1  0  0  0
  -19.8722  -24.3635    7.5017 H   0  0  0  0  0  0
  -19.9205  -23.9776    5.8834 H   0  0  0  0  0  0
  -21.9368  -23.0813    4.8302 O   0  0  0  0  0  0
  -21.7830  -20.8002    5.5635 C   0  0  0  0  0  0
  -22.0293  -22.2637    5.9666 C   0  0  2  0  0  0
  -21.0042  -23.0072    4.5019 H   0  0  0  0  0  0
  1  3  1  0  0  0
  1  8  1  0  0  0
  2  6  1  0  0  0
  2  7  1  0  0  0
  3  5  1  0  0  0
  3  6  1  0  0  0
  4  5  2  0  0  0
  5  7  1  0  0  0
  6 17  1  0  0  0
  7 21  1  0  0  0
  9 10  2  0  0  0
  9 14  1  0  0  0
 10 11  1  0  0  0
 10 17  1  0  0  0
 11 13  1  0  0  0
 11 16  2  0  0  0
 12 14  2  0  0  0
 12 16  1  0  0  0
 13 18  2  0  0  0
 15 16  1  0  0  0
 15 19  1  0  0  0
 15 20  1  0  0  0
 17 18  1  0  0  0
 21 22  1  0  0  0
 22 24  1  0  0  0
 23 24  3  0  0  0
 23 26  1  0  0  0
 25 26  1  0  0  0
 25 27  1  0  0  0
 25 28  1  0  0  0
 26 31  1  0  0  0
 29 31  1  0  0  0
 29 32  1  0  0  0
 30 31  1  0  0  0
M  END
> <s_m_entry_id>
877

> <s_m_entry_name>
10-myco-1_5_lig_gen_fit_add_gna.sdf.2

> <s_m_Source_Path>
C:\Users\maila\Downloads\mgr\myco-analysis

> <s_m_Source_File>
myco-10-var1-wzakresie.mae

> <i_m_Source_File_Index>
24

> <s_user_SMILES>
C[C@@H](O)[C@H](N)C#CCC[C@H](C1=O)O[C@H]([C@@H]1O)n(cn2)c(c23)ncnc3N

> <minimizedAffinity>
-9.59218

> <minimizedRMSD>
0.65341

> <CNNscore>
0.980258286

> <CNNaffinity>
6.5476813316

> <CNN_VS>
6.4184188843

> <CNNaffinity_variance>
0.0677224547

$$$$
OC[C@@H](N)C#CCC[C@@H]1[C@@H](O)[C@@H](O)[C@@H](O1)n(cn2)c(c23)ncnc3N
                    3D
 Schrodinger Suite 2021-1.
 32 34  0  0  1  0            999 V2000
  -25.3525  -19.9718    9.7725 O   0  0  0  0  0  0
  -25.1827  -18.2617   11.8649 O   0  0  0  0  0  0
  -24.2486  -20.1342   10.6295 C   0  0  2  0  0  0
  -24.4129  -21.2265   11.6716 C   0  0  2  0  0  0
  -23.4662  -20.9740   12.6860 O   0  0  0  0  0  0
  -23.9991  -18.9428   11.5134 C   0  0  2  0  0  0
  -23.3075  -19.5647   12.7310 C   0  0  2  0  0  0
  -26.1810  -20.0599   10.3065 H   0  0  0  0  0  0
  -25.7449  -18.8668   12.4145 H   0  0  0  0  0  0
  -21.3138  -15.6485   12.9480 C   0  0  0  0  0  0
  -19.9698  -15.6841   12.7406 N   0  0  0  0  0  0
  -21.3761  -17.9700   12.8187 C   0  0  0  0  0  0
  -20.0472  -18.0171   12.5763 C   0  0  0  0  0  0
  -19.6637  -19.2723   12.3122 N   0  0  0  0  0  0
  -22.0443  -16.8030   12.9882 N   0  0  0  0  0  0
  -17.9047  -16.8325   12.3108 N   0  0  0  0  0  0
  -19.3055  -16.8486   12.5464 C   0  0  0  0  0  0
  -20.8204  -19.9775   12.4355 C   0  0  0  0  0  0
  -21.8908  -19.2041   12.7471 N   0  0  0  0  0  0
  -17.3688  -15.9510   12.4479 H   0  0  0  0  0  0
  -17.4195  -17.6603   11.9204 H   0  0  0  0  0  0
  -24.3128  -22.6399   11.0911 C   0  0  0  0  0  0
  -22.8943  -23.1223   10.7371 C   0  0  0  0  0  0
  -22.5232  -23.4287    8.1084 C   0  0  0  0  0  0
  -22.6935  -23.2577    9.2897 C   0  0  0  0  0  0
  -22.3230  -23.6916    6.6731 C   0  0  2  0  0  0
  -21.7705  -25.0323    6.4871 N   0  0  0  0  0  0
  -22.4146  -25.7220    6.9356 H   0  0  0  0  0  0
  -21.7803  -25.2489    5.4642 H   0  0  0  0  0  0
  -20.1124  -22.6798    6.6245 O   0  0  0  0  0  0
  -21.3929  -22.6413    6.0499 C   0  0  0  0  0  0
  -20.2097  -22.3963    7.5697 H   0  0  0  0  0  0
  1  3  1  0  0  0
  1  8  1  0  0  0
  2  6  1  0  0  0
  2  9  1  0  0  0
  3  4  1  0  0  0
  3  6  1  0  0  0
  4  5  1  0  0  0
  4 22  1  0  0  0
  5  7  1  0  0  0
  6  7  1  0  0  0
  7 19  1  0  0  0
 10 11  2  0  0  0
 10 15  1  0  0  0
 11 17  1  0  0  0
 12 13  1  0  0  0
 12 15  2  0  0  0
 12 19  1  0  0  0
 13 14  1  0  0  0
 13 17  2  0  0  0
 14 18  2  0  0  0
 16 17  1  0  0  0
 16 20  1  0  0  0
 16 21  1  0  0  0
 18 19  1  0  0  0
 22 23  1  0  0  0
 23 25  1  0  0  0
 24 26  1  0  0  0
 24 25  3  0  0  0
 26 27  1  0  0  0
 26 31  1  0  0  0
 27 28  1  0  0  0
 27 29  1  0  0  0
 30 31  1  0  0  0
 30 32  1  0  0  0
M  END
> <s_m_entry_id>
878

> <s_m_entry_name>
10-myco-1_5_lig_gen_fit_add_gna.sdf.3

> <s_m_Source_Path>
C:\Users\maila\Downloads\mgr\myco-analysis

> <s_m_Source_File>
myco-10-var1-wzakresie.mae

> <i_m_Source_File_Index>
25

> <s_user_SMILES>
OC[C@@H](N)C#CCC[C@@H]1[C@@H](O)[C@@H](O)[C@@H](O1)n(cn2)c(c23)ncnc3N

> <minimizedAffinity>
-9.32308

> <minimizedRMSD>
0.47475

> <CNNscore>
0.9912113547

> <CNNaffinity>
6.5577850342

> <CNN_VS>
6.5001511574

> <CNNaffinity_variance>
0.0610048771

$$$$
OCC(O)=C=CCOC(=O)C(=O)n(cn1)c(c12)ncnc2N
                    3D
 Schrodinger Suite 2021-1.
 26 27  0  0  1  0            999 V2000
  -21.5024  -17.7776   12.6277 C   0  0  0  0  0  0
  -19.7772  -15.7021   12.5058 N   0  0  0  0  0  0
  -19.2723  -16.9665   12.4957 C   0  0  0  0  0  0
  -17.8658  -17.1796   12.4248 N   0  0  0  0  0  0
  -19.9480  -19.3386   12.4641 N   0  0  0  0  0  0
  -22.0039  -16.5202   12.6184 N   0  0  0  0  0  0
  -21.1241  -15.4735   12.5656 C   0  0  0  0  0  0
  -24.3891  -18.2690   12.9276 O   0  0  0  0  0  0
  -22.1804  -18.9363   12.5795 N   0  0  0  0  0  0
  -23.6008  -19.1136   12.4292 C   0  0  0  0  0  0
  -21.1958  -19.8721   12.5026 C   0  0  0  0  0  0
  -20.1756  -18.0207   12.5526 C   0  0  0  0  0  0
  -17.2095  -16.3682   12.3850 H   0  0  0  0  0  0
  -17.4787  -18.1459   12.4393 H   0  0  0  0  0  0
  -24.1574  -20.2029   11.6098 C   0  0  0  0  0  0
  -24.8919  -19.9272   10.6228 O   0  0  0  0  0  0
  -23.8743  -21.5314   11.9250 O   0  0  0  0  0  0
  -23.7137  -22.5563   10.9531 C   0  0  0  0  0  0
  -22.9912  -21.7723    7.4775 C   0  0  0  0  0  0
  -22.8059  -21.9779    8.7559 C   0  0  0  0  0  0
  -22.5994  -22.1882   10.0269 C   0  0  0  0  0  0
  -22.7378  -22.7913    6.5612 O   0  0  0  0  0  0
  -22.4133  -23.7052    6.8575 H   0  0  0  0  0  0
  -23.4802  -20.4452    6.9820 C   0  0  0  0  0  0
  -22.5850  -19.9243    6.0385 O   0  0  0  0  0  0
  -21.7850  -19.6228    6.5430 H   0  0  0  0  0  0
  1  6  2  0  0  0
  1  9  1  0  0  0
  1 12  1  0  0  0
  2  3  1  0  0  0
  2  7  2  0  0  0
  3  4  1  0  0  0
  3 12  2  0  0  0
  4 13  1  0  0  0
  4 14  1  0  0  0
  5 11  2  0  0  0
  5 12  1  0  0  0
  6  7  1  0  0  0
  8 10  2  0  0  0
  9 10  1  0  0  0
  9 11  1  0  0  0
 10 15  1  0  0  0
 15 17  1  0  0  0
 15 16  2  0  0  0
 17 18  1  0  0  0
 18 21  1  0  0  0
 19 24  1  0  0  0
 19 20  2  0  0  0
 19 22  1  0  0  0
 20 21  2  0  0  0
 22 23  1  0  0  0
 24 25  1  0  0  0
 25 26  1  0  0  0
M  END
> <s_m_entry_id>
879

> <s_m_entry_name>
10-myco-1_5_lig_gen_fit_add_gna.sdf.4

> <s_m_Source_Path>
C:\Users\maila\Downloads\mgr\myco-analysis

> <s_m_Source_File>
myco-10-var1-wzakresie.mae

> <i_m_Source_File_Index>
26

> <s_user_SMILES>
OCC(O)=C=CCOC(=O)C(=O)n(cn1)c(c12)ncnc2N

> <minimizedAffinity>
-8.92131

> <minimizedRMSD>
1.17225

> <CNNscore>
0.9904247522

> <CNNaffinity>
6.023267746

> <CNN_VS>
5.965593338

> <CNNaffinity_variance>
0.2116060704

$$$$
OCC(N)=C=CC[C@@H]1[C@@H](O)[C@@H](O)[C@@H](O1)n(cn2)c(c23)ncnc3N
                    3D
 Schrodinger Suite 2021-1.
 31 33  0  0  1  0            999 V2000
  -25.5963  -18.2478   12.1915 O   0  0  0  0  0  0
  -24.4538  -19.3677   10.4049 C   0  0  2  0  0  0
  -24.3337  -18.5038   11.6319 C   0  0  2  0  0  0
  -25.6741  -19.1797    9.7355 O   0  0  0  0  0  0
  -23.7428  -20.7374   12.2435 O   0  0  0  0  0  0
  -23.5296  -19.3832   12.5782 C   0  0  1  0  0  0
  -24.3526  -20.7846   10.9689 C   0  0  2  0  0  0
  -25.9394  -17.4305   11.7479 H   0  0  0  0  0  0
  -25.6015  -18.3145    9.2542 H   0  0  0  0  0  0
  -21.5154  -17.8717   12.6120 C   0  0  0  0  0  0
  -20.1741  -18.0171   12.5263 C   0  0  0  0  0  0
  -21.2980  -15.5635   12.7896 C   0  0  0  0  0  0
  -19.8492  -19.3103   12.3994 N   0  0  0  0  0  0
  -22.1112  -16.6613   12.7422 N   0  0  0  0  0  0
  -21.0571  -19.9350   12.4372 C   0  0  0  0  0  0
  -19.9460  -15.6965   12.7147 N   0  0  0  0  0  0
  -17.9362  -16.9915   12.4860 N   0  0  0  0  0  0
  -22.1016  -19.0731   12.5339 N   0  0  0  0  0  0
  -19.3510  -16.9056   12.5784 C   0  0  0  0  0  0
  -17.3532  -16.1544   12.6957 H   0  0  0  0  0  0
  -17.4815  -17.8363   12.0934 H   0  0  0  0  0  0
  -23.5552  -21.6940   10.0190 C   0  0  0  0  0  0
  -21.4904  -25.9830    9.7827 N   0  0  0  0  0  0
  -21.5956  -24.6242    9.3530 C   0  0  0  0  0  0
  -23.0685  -22.9397   10.6969 C   0  0  0  0  0  0
  -22.3184  -23.7816   10.0421 C   0  0  0  0  0  0
  -21.9252  -26.2976   10.6797 H   0  0  0  0  0  0
  -20.9845  -26.6874    9.2014 H   0  0  0  0  0  0
  -20.1211  -23.1029    8.2903 O   0  0  0  0  0  0
  -20.9801  -24.1839    8.0583 C   0  0  0  0  0  0
  -19.7587  -22.8428    7.4040 H   0  0  0  0  0  0
  1  3  1  0  0  0
  1  8  1  0  0  0
  2  3  1  0  0  0
  2  4  1  0  0  0
  2  7  1  0  0  0
  3  6  1  0  0  0
  4  9  1  0  0  0
  5  6  1  0  0  0
  5  7  1  0  0  0
  6 18  1  0  0  0
  7 22  1  0  0  0
 10 11  2  0  0  0
 10 14  1  0  0  0
 10 18  1  0  0  0
 11 13  1  0  0  0
 11 19  1  0  0  0
 12 14  2  0  0  0
 12 16  1  0  0  0
 13 15  2  0  0  0
 15 18  1  0  0  0
 16 19  2  0  0  0
 17 19  1  0  0  0
 17 20  1  0  0  0
 17 21  1  0  0  0
 22 25  1  0  0  0
 23 24  1  0  0  0
 23 27  1  0  0  0
 23 28  1  0  0  0
 24 26  2  0  0  0
 24 30  1  0  0  0
 25 26  2  0  0  0
 29 30  1  0  0  0
 29 31  1  0  0  0
M  END
> <s_m_entry_id>
880

> <s_m_entry_name>
10-myco-1_5_lig_gen_fit_add_gna.sdf.5

> <s_m_Source_Path>
C:\Users\maila\Downloads\mgr\myco-analysis

> <s_m_Source_File>
myco-10-var1-wzakresie.mae

> <i_m_Source_File_Index>
27

> <s_user_SMILES>
OCC(N)=C=CC[C@@H]1[C@@H](O)[C@@H](O)[C@@H](O1)n(cn2)c(c23)ncnc3N

> <minimizedAffinity>
-9.75574

> <minimizedRMSD>
0.78322

> <CNNscore>
0.9907563329

> <CNNaffinity>
6.3311929703

> <CNN_VS>
6.2726693153

> <CNNaffinity_variance>
0.0847742334

$$$$
OC[C@H](N)C#CC[C@@H]1[C@H](O)[C@@H](O)[C@@H](O1)n(cn2)c(c23)ncnc3N
                    3D
 Schrodinger Suite 2021-1.
 31 33  0  0  1  0            999 V2000
  -25.4281  -17.8267   12.5115 O   0  0  0  0  0  0
  -25.1232  -19.3416   10.6595 C   0  0  2  0  0  0
  -25.0872  -20.7123   11.3221 C   0  0  2  0  0  0
  -23.8996  -20.8045   12.0663 O   0  0  0  0  0  0
  -24.3484  -19.3121    9.4888 O   0  0  0  0  0  0
  -24.4702  -18.4967   11.7319 C   0  0  2  0  0  0
  -23.6596  -19.5037   12.5658 C   0  0  2  0  0  0
  -26.0911  -18.4966   12.8183 H   0  0  0  0  0  0
  -24.5905  -18.4767    9.0102 H   0  0  0  0  0  0
  -21.6326  -18.0061   12.6289 C   0  0  0  0  0  0
  -18.0618  -17.1231   12.3308 N   0  0  0  0  0  0
  -19.4700  -17.0397   12.4993 C   0  0  0  0  0  0
  -22.2208  -16.7931   12.7692 N   0  0  0  0  0  0
  -20.0576  -15.8285   12.6547 N   0  0  0  0  0  0
  -19.9839  -19.4451   12.3112 N   0  0  0  0  0  0
  -21.4059  -15.6954   12.7813 C   0  0  0  0  0  0
  -22.2283  -19.2038   12.5384 N   0  0  0  0  0  0
  -21.1926  -20.0682   12.3829 C   0  0  0  0  0  0
  -20.2961  -18.1533   12.4867 C   0  0  0  0  0  0
  -17.4693  -16.2836   12.5025 H   0  0  0  0  0  0
  -17.6299  -17.9641   11.9075 H   0  0  0  0  0  0
  -25.2775  -21.9067   10.3877 C   0  0  0  0  0  0
  -23.2891  -22.4277    8.6806 C   0  0  0  0  0  0
  -24.1512  -22.1600    9.4793 C   0  0  0  0  0  0
  -22.1385  -21.7070    6.7099 N   0  0  0  0  0  0
  -22.2857  -22.7984    7.6722 C   0  0  1  0  0  0
  -21.4718  -22.0049    5.9606 H   0  0  0  0  0  0
  -21.7226  -20.8766    7.1886 H   0  0  0  0  0  0
  -20.9452  -23.1483    8.3380 C   0  0  0  0  0  0
  -21.0364  -24.3728    9.0177 O   0  0  0  0  0  0
  -21.4080  -24.1762    9.9173 H   0  0  0  0  0  0
  1  6  1  0  0  0
  1  8  1  0  0  0
  2  3  1  0  0  0
  2  5  1  0  0  0
  2  6  1  0  0  0
  3  4  1  0  0  0
  3 22  1  0  0  0
  4  7  1  0  0  0
  5  9  1  0  0  0
  6  7  1  0  0  0
  7 17  1  0  0  0
 10 13  2  0  0  0
 10 17  1  0  0  0
 10 19  1  0  0  0
 11 12  1  0  0  0
 11 20  1  0  0  0
 11 21  1  0  0  0
 12 14  1  0  0  0
 12 19  2  0  0  0
 13 16  1  0  0  0
 14 16  2  0  0  0
 15 18  2  0  0  0
 15 19  1  0  0  0
 17 18  1  0  0  0
 22 24  1  0  0  0
 23 24  3  0  0  0
 23 26  1  0  0  0
 25 26  1  0  0  0
 25 27  1  0  0  0
 25 28  1  0  0  0
 26 29  1  0  0  0
 29 30  1  0  0  0
 30 31  1  0  0  0
M  END
> <s_m_entry_id>
881

> <s_m_entry_name>
10-myco-1_5_lig_gen_fit_add_gna.sdf.6

> <s_m_Source_Path>
C:\Users\maila\Downloads\mgr\myco-analysis

> <s_m_Source_File>
myco-10-var1-wzakresie.mae

> <i_m_Source_File_Index>
28

> <s_user_SMILES>
OC[C@H](N)C#CC[C@@H]1[C@H](O)[C@@H](O)[C@@H](O1)n(cn2)c(c23)ncnc3N

> <minimizedAffinity>
-9.12315

> <minimizedRMSD>
0.47108

> <CNNscore>
0.988568604

> <CNNaffinity>
6.0708017349

> <CNN_VS>
6.0014038086

> <CNNaffinity_variance>
0.2733233869

$$$$
OC(O)(O)C=C=CC[C@@H]1[C@@H](O)[C@@H](O)[C@@H](O1)n(cn2)c(c23)ncnc3N
                    3D
 Schrodinger Suite 2021-1.
 32 34  0  0  1  0            999 V2000
  -25.3875  -18.3245   11.7951 O   0  0  0  0  0  0
  -24.3040  -19.9396   10.3572 C   0  0  2  0  0  0
  -23.5409  -20.9293   12.3871 O   0  0  0  0  0  0
  -24.1477  -18.8379   11.3707 C   0  0  2  0  0  0
  -25.4844  -19.7939    9.6115 O   0  0  0  0  0  0
  -23.4014  -19.5265   12.5165 C   0  0  2  0  0  0
  -24.3483  -21.1712   11.2549 C   0  0  2  0  0  0
  -25.9080  -19.0685   12.1925 H   0  0  0  0  0  0
  -25.3055  -20.1917    8.7209 H   0  0  0  0  0  0
  -19.3601  -16.8377   12.5733 C   0  0  0  0  0  0
  -21.4650  -17.9240   12.6271 C   0  0  0  0  0  0
  -20.0217  -15.6643   12.7114 N   0  0  0  0  0  0
  -21.3778  -15.6058   12.7962 C   0  0  0  0  0  0
  -17.9446  -16.8408   12.4607 N   0  0  0  0  0  0
  -22.1269  -16.7477   12.7563 N   0  0  0  0  0  0
  -19.7255  -19.2675   12.3849 N   0  0  0  0  0  0
  -21.9871  -19.1537   12.5324 N   0  0  0  0  0  0
  -20.8981  -19.9576   12.4246 C   0  0  0  0  0  0
  -20.1190  -17.9949   12.5299 C   0  0  0  0  0  0
  -17.4076  -15.9700   12.6558 H   0  0  0  0  0  0
  -17.4502  -17.6582   12.0607 H   0  0  0  0  0  0
  -23.9287  -22.4677   10.5504 C   0  0  0  0  0  0
  -22.6274  -23.0817    8.5900 C   0  0  0  0  0  0
  -22.7549  -22.3042    9.6288 C   0  0  0  0  0  0
  -22.4984  -23.8664    7.5543 C   0  0  0  0  0  0
  -22.7225  -22.0069    6.0827 O   0  0  0  0  0  0
  -20.8200  -23.3002    5.9442 O   0  0  0  0  0  0
  -22.8474  -24.1240    5.2305 O   0  0  0  0  0  0
  -22.2095  -23.3130    6.1831 C   0  0  0  0  0  0
  -22.1337  -21.4120    6.6176 H   0  0  0  0  0  0
  -20.5149  -24.2457    5.9306 H   0  0  0  0  0  0
  -22.6322  -23.7435    4.3395 H   0  0  0  0  0  0
  1  4  1  0  0  0
  1  8  1  0  0  0
  2  4  1  0  0  0
  2  5  1  0  0  0
  2  7  1  0  0  0
  3  6  1  0  0  0
  3  7  1  0  0  0
  4  6  1  0  0  0
  5  9  1  0  0  0
  6 17  1  0  0  0
  7 22  1  0  0  0
 10 12  2  0  0  0
 10 14  1  0  0  0
 10 19  1  0  0  0
 11 15  1  0  0  0
 11 17  1  0  0  0
 11 19  2  0  0  0
 12 13  1  0  0  0
 13 15  2  0  0  0
 14 20  1  0  0  0
 14 21  1  0  0  0
 16 18  2  0  0  0
 16 19  1  0  0  0
 17 18  1  0  0  0
 22 24  1  0  0  0
 23 24  2  0  0  0
 23 25  2  0  0  0
 25 29  1  0  0  0
 26 29  1  0  0  0
 26 30  1  0  0  0
 27 29  1  0  0  0
 27 31  1  0  0  0
 28 29  1  0  0  0
 28 32  1  0  0  0
M  END
> <s_m_entry_id>
882

> <s_m_entry_name>
10-myco-1_5_lig_gen_fit_add_gna.sdf.7

> <s_m_Source_Path>
C:\Users\maila\Downloads\mgr\myco-analysis

> <s_m_Source_File>
myco-10-var1-wzakresie.mae

> <i_m_Source_File_Index>
29

> <s_user_SMILES>
OC(O)(O)C=C=CC[C@@H]1[C@@H](O)[C@@H](O)[C@@H](O1)n(cn2)c(c23)ncnc3N

> <minimizedAffinity>
-10.71257

> <minimizedRMSD>
0.90544

> <CNNscore>
0.972628355

> <CNNaffinity>
6.2128915787

> <CNN_VS>
6.0428342819

> <CNNaffinity_variance>
0.0328501686

$$$$
O1CC12C([C@H]2N)=C=CC[C@@H]3[C@@H](O)[C@@H](O)[C@@H](O3)n(cn4)c(c45)ncnc5N
                    3D
 Schrodinger Suite 2021-1.
 32 36  0  0  1  0            999 V2000
  -25.5274  -19.8432    9.6446 O   0  0  0  0  0  0
  -24.2595  -18.7526   11.3766 C   0  0  2  0  0  0
  -25.5099  -18.2431   11.7681 O   0  0  0  0  0  0
  -23.7977  -20.7363   12.6468 O   0  0  0  0  0  0
  -24.4209  -19.9620   10.5000 C   0  0  1  0  0  0
  -23.5519  -19.3409   12.5949 C   0  0  1  0  0  0
  -24.6272  -21.0432   11.5468 C   0  0  1  0  0  0
  -25.3053  -20.3577    8.8262 H   0  0  0  0  0  0
  -25.8270  -17.6616   11.0309 H   0  0  0  0  0  0
  -22.0870  -16.6597   12.7576 N   0  0  0  0  0  0
  -21.5097  -17.8788   12.6235 C   0  0  0  0  0  0
  -19.3362  -16.9420   12.5253 C   0  0  0  0  0  0
  -19.8722  -19.3396   12.3533 N   0  0  0  0  0  0
  -20.1742  -18.0429   12.5000 C   0  0  0  0  0  0
  -21.2599  -15.5722   12.7758 C   0  0  0  0  0  0
  -19.9126  -15.7247   12.6681 N   0  0  0  0  0  0
  -17.9253  -17.0461   12.3993 N   0  0  0  0  0  0
  -22.1161  -19.0704   12.5559 N   0  0  0  0  0  0
  -21.0887  -19.9460   12.4179 C   0  0  0  0  0  0
  -17.3271  -16.2154   12.5886 H   0  0  0  0  0  0
  -17.4897  -17.9021   12.0106 H   0  0  0  0  0  0
  -24.3716  -22.4577   11.0145 C   0  0  0  0  0  0
  -22.2332  -23.0972    6.7124 C   0  0  3  0  0  0
  -21.4677  -25.2981    7.3520 N   0  0  0  0  0  0
  -22.9262  -22.7202   10.7120 C   0  0  0  0  0  0
  -22.0853  -23.1514    8.2797 C   0  0  0  0  0  0
  -22.4156  -21.5987    6.5838 C   0  0  0  0  0  0
  -22.5132  -22.9257    9.4911 C   0  0  0  0  0  0
  -21.4108  -22.2446    5.9138 O   0  0  0  0  0  0
  -21.1923  -23.8700    7.3489 C   0  0  2  0  0  0
  -20.9656  -25.7129    8.1698 H   0  0  0  0  0  0
  -21.0239  -25.6996    6.4955 H   0  0  0  0  0  0
  1  5  1  0  0  0
  1  8  1  0  0  0
  2  3  1  0  0  0
  2  5  1  0  0  0
  2  6  1  0  0  0
  3  9  1  0  0  0
  4  6  1  0  0  0
  4  7  1  0  0  0
  5  7  1  0  0  0
  6 18  1  0  0  0
  7 22  1  0  0  0
 10 11  2  0  0  0
 10 15  1  0  0  0
 11 14  1  0  0  0
 11 18  1  0  0  0
 12 14  2  0  0  0
 12 16  1  0  0  0
 12 17  1  0  0  0
 13 14  1  0  0  0
 13 19  2  0  0  0
 15 16  2  0  0  0
 17 20  1  0  0  0
 17 21  1  0  0  0
 18 19  1  0  0  0
 22 25  1  0  0  0
 23 26  1  0  0  0
 23 27  1  0  0  0
 23 29  1  0  0  0
 23 30  1  0  0  0
 24 30  1  0  0  0
 24 31  1  0  0  0
 24 32  1  0  0  0
 25 28  2  0  0  0
 26 28  2  0  0  0
 26 30  1  0  0  0
 27 29  1  0  0  0
M  END
> <s_m_entry_id>
883

> <s_m_entry_name>
10-myco-1_5_lig_gen_fit_add_gna.sdf.8

> <s_m_Source_Path>
C:\Users\maila\Downloads\mgr\myco-analysis

> <s_m_Source_File>
myco-10-var1-wzakresie.mae

> <i_m_Source_File_Index>
30

> <s_user_SMILES>
O1CC12C([C@H]2N)=C=CC[C@@H]3[C@@H](O)[C@@H](O)[C@@H](O3)n(cn4)c(c45)ncnc5N

> <minimizedAffinity>
-10.86427

> <minimizedRMSD>
0.52153

> <CNNscore>
0.9892546535

> <CNNaffinity>
6.7365427017

> <CNN_VS>
6.6641564369

> <CNNaffinity_variance>
0.0709073767

$$$$
OCC(N)=C=CC[C@@H]1[C@@H](O)[C@@H](O)[C@@H](O1)n(cn2)c(c23)ncnc3N
                    3D
 Schrodinger Suite 2021-1.
 31 33  0  0  1  0            999 V2000
  -25.3122  -18.3169   11.7655 O   0  0  0  0  0  0
  -25.3534  -20.1497    9.7669 O   0  0  0  0  0  0
  -24.2744  -20.2141   10.6671 C   0  0  1  0  0  0
  -23.3863  -19.4680   12.7260 C   0  0  2  0  0  0
  -23.5767  -20.8706   12.8335 O   0  0  0  0  0  0
  -24.0909  -18.9536   11.4666 C   0  0  2  0  0  0
  -24.4355  -21.2466   11.7793 C   0  0  2  0  0  0
  -25.8513  -18.9224   12.3357 H   0  0  0  0  0  0
  -26.1933  -20.2685   10.2754 H   0  0  0  0  0  0
  -21.3956  -17.9393   12.7632 C   0  0  0  0  0  0
  -21.2306  -15.6266   12.9368 C   0  0  0  0  0  0
  -19.8882  -15.7201   12.7374 N   0  0  0  0  0  0
  -17.8724  -16.9529   12.3067 N   0  0  0  0  0  0
  -19.2744  -16.9097   12.5304 C   0  0  0  0  0  0
  -19.7316  -19.3178   12.2945 N   0  0  0  0  0  0
  -22.0122  -16.7473   12.9526 N   0  0  0  0  0  0
  -21.9605  -19.1501   12.6848 N   0  0  0  0  0  0
  -20.9181  -19.9737   12.4104 C   0  0  0  0  0  0
  -20.0673  -18.0441   12.5373 C   0  0  0  0  0  0
  -17.2980  -16.0999   12.4675 H   0  0  0  0  0  0
  -17.4250  -17.7896   11.8907 H   0  0  0  0  0  0
  -24.1779  -22.6773   11.3037 C   0  0  0  0  0  0
  -22.8249  -22.8679   10.6836 C   0  0  0  0  0  0
  -22.5887  -23.4182    8.1400 C   0  0  0  0  0  0
  -22.7024  -23.1354    9.4116 C   0  0  0  0  0  0
  -22.5101  -24.7824    7.7225 N   0  0  0  0  0  0
  -22.5260  -25.5597    8.4206 H   0  0  0  0  0  0
  -22.4468  -25.0219    6.7082 H   0  0  0  0  0  0
  -21.2841  -22.2121    6.5507 O   0  0  0  0  0  0
  -22.5615  -22.3187    7.1169 C   0  0  0  0  0  0
  -20.6834  -21.8715    7.2636 H   0  0  0  0  0  0
  1  6  1  0  0  0
  1  8  1  0  0  0
  2  3  1  0  0  0
  2  9  1  0  0  0
  3  6  1  0  0  0
  3  7  1  0  0  0
  4  5  1  0  0  0
  4 17  1  0  0  0
  4  6  1  0  0  0
  5  7  1  0  0  0
  7 22  1  0  0  0
 10 16  2  0  0  0
 10 17  1  0  0  0
 10 19  1  0  0  0
 11 12  2  0  0  0
 11 16  1  0  0  0
 12 14  1  0  0  0
 13 14  1  0  0  0
 13 20  1  0  0  0
 13 21  1  0  0  0
 14 19  2  0  0  0
 15 18  2  0  0  0
 15 19  1  0  0  0
 17 18  1  0  0  0
 22 23  1  0  0  0
 23 25  2  0  0  0
 24 25  2  0  0  0
 24 26  1  0  0  0
 24 30  1  0  0  0
 26 27  1  0  0  0
 26 28  1  0  0  0
 29 30  1  0  0  0
 29 31  1  0  0  0
M  END
> <s_m_entry_id>
884

> <s_m_entry_name>
10-myco-1_5_lig_gen_fit_add_gna.sdf.10

> <s_m_Source_Path>
C:\Users\maila\Downloads\mgr\myco-analysis

> <s_m_Source_File>
myco-10-var1-wzakresie.mae

> <i_m_Source_File_Index>
31

> <s_user_SMILES>
OCC(N)=C=CC[C@@H]1[C@@H](O)[C@@H](O)[C@@H](O1)n(cn2)c(c23)ncnc3N

> <minimizedAffinity>
-10.01538

> <minimizedRMSD>
0.4795

> <CNNscore>
0.9904723167

> <CNNaffinity>
6.4654245377

> <CNN_VS>
6.4038238525

> <CNNaffinity_variance>
0.0672057346

$$$$
C1=NC=C[C@@]12[C@@H](O2)Cc3cc(cc(c3)OC)C4=CC=NC4
                    3D
 Schrodinger Suite 2021-1.
 21 24  0  0  1  0            999 V2000
  -23.0365  -20.2453   11.3821 C   0  0  0  0  0  0
  -22.7557  -21.9384    9.6546 C   0  0  0  0  0  0
  -24.2080  -20.0205    9.2604 C   0  0  0  0  0  0
  -22.5023  -21.4628   10.9441 C   0  0  0  0  0  0
  -23.5763  -21.1839    8.8038 C   0  0  0  0  0  0
  -23.9368  -19.5517   10.5591 C   0  0  0  0  0  0
  -22.1107  -23.1857    9.1862 C   0  0  0  0  0  0
  -21.5844  -24.1184    9.9673 C   0  0  0  0  0  0
  -21.1699  -24.8310    7.8581 N   0  0  0  0  0  0
  -21.0124  -25.1293    9.1037 C   0  0  0  0  0  0
  -21.8773  -23.5604    7.7591 C   0  0  0  0  0  0
  -25.0764  -19.3501    8.3885 O   0  0  0  0  0  0
  -26.4764  -19.2121    8.6074 C   0  0  0  0  0  0
  -22.5160  -19.6392   12.6550 C   0  0  0  0  0  0
  -19.1163  -17.5734   12.2285 C   0  0  0  0  0  0
  -20.2477  -15.7803   12.8223 C   0  0  0  0  0  0
  -18.9896  -16.2957   12.3755 N   0  0  0  0  0  0
  -20.4675  -18.8399   13.6837 O   0  0  0  0  0  0
  -21.0109  -19.3790   12.5121 C   0  0  2  0  0  0
  -21.1628  -16.7319   12.9532 C   0  0  0  0  0  0
  -20.4949  -17.9854   12.5643 C   0  0  2  0  0  0
  1  4  2  0  0  0
  1  6  1  0  0  0
  1 14  1  0  0  0
  2  7  1  0  0  0
  2  4  1  0  0  0
  2  5  2  0  0  0
  3  5  1  0  0  0
  3  6  2  0  0  0
  3 12  1  0  0  0
  7  8  2  0  0  0
  7 11  1  0  0  0
  8 10  1  0  0  0
  9 10  2  0  0  0
  9 11  1  0  0  0
 12 13  1  0  0  0
 14 19  1  0  0  0
 15 17  2  0  0  0
 15 21  1  0  0  0
 16 17  1  0  0  0
 16 20  2  0  0  0
 18 19  1  0  0  0
 18 21  1  0  0  0
 19 21  1  0  0  0
 20 21  1  0  0  0
M  END
> <s_m_entry_id>
885

> <s_m_entry_name>
10-myco-1_32_lig_gen_fit_add_gna.sdf.1

> <s_m_Source_Path>
C:\Users\maila\Downloads\mgr\myco-analysis

> <s_m_Source_File>
myco-10-var1-wzakresie.mae

> <i_m_Source_File_Index>
32

> <s_user_SMILES>
C1=NC=C[C@@]12[C@@H](O2)Cc3cc(cc(c3)OC)C4=CC=NC4

> <minimizedAffinity>
-8.40963

> <minimizedRMSD>
0.49849

> <CNNscore>
0.8382965326

> <CNNaffinity>
6.3010172844

> <CNN_VS>
5.2821207047

> <CNNaffinity_variance>
0.2370405197

$$$$
C1C=NC=C1C(=O)NCc2cc(cc(c2)OC)C3=CC=CNN3
                    3D
 Schrodinger Suite 2021-1.
 26 28  0  0  1  0            999 V2000
  -22.1534  -22.9055    9.1767 C   0  0  0  0  0  0
  -22.2263  -22.4963   10.5140 C   0  0  0  0  0  0
  -22.8009  -22.1470    8.1958 C   0  0  0  0  0  0
  -23.5247  -20.9986    8.5272 C   0  0  0  0  0  0
  -23.5839  -20.5882    9.8733 C   0  0  0  0  0  0
  -22.9247  -21.3302   10.8666 C   0  0  0  0  0  0
  -21.4119  -24.1250    8.7849 C   0  0  0  0  0  0
  -20.1603  -26.5346    7.9532 C   0  0  0  0  0  0
  -21.2729  -25.1563    9.6333 C   0  0  0  0  0  0
  -20.2594  -25.4339    7.0453 N   0  0  0  0  0  0
  -20.6392  -26.4126    9.1926 C   0  0  0  0  0  0
  -20.8808  -24.2422    7.4546 N   0  0  0  0  0  0
  -19.8677  -25.5153    6.0810 H   0  0  0  0  0  0
  -20.9094  -23.4294    6.8004 H   0  0  0  0  0  0
  -25.1380  -19.2878    7.6484 C   0  0  0  0  0  0
  -24.1554  -20.3028    7.4833 O   0  0  0  0  0  0
  -22.9310  -20.8637   12.2971 C   0  0  0  0  0  0
  -20.1587  -20.3168   12.5803 O   0  0  0  0  0  0
  -22.3466  -19.5284   12.4159 N   0  0  0  0  0  0
  -20.9333  -19.3260   12.5760 C   0  0  0  0  0  0
  -22.9923  -18.7076   12.4150 H   0  0  0  0  0  0
  -20.3695  -17.9678   12.6815 C   0  0  0  0  0  0
  -18.9387  -16.2222   12.4708 N   0  0  0  0  0  0
  -20.0749  -15.7112   12.8114 C   0  0  0  0  0  0
  -19.1204  -17.6282   12.3960 C   0  0  0  0  0  0
  -21.1301  -16.7395   13.0263 C   0  0  0  0  0  0
  1  7  1  0  0  0
  1  2  2  0  0  0
  1  3  1  0  0  0
  2  6  1  0  0  0
  3  4  2  0  0  0
  4  5  1  0  0  0
  4 16  1  0  0  0
  5  6  2  0  0  0
  6 17  1  0  0  0
  7  9  2  0  0  0
  7 12  1  0  0  0
  8 10  1  0  0  0
  8 11  2  0  0  0
  9 11  1  0  0  0
 10 12  1  0  0  0
 10 13  1  0  0  0
 12 14  1  0  0  0
 15 16  1  0  0  0
 17 19  1  0  0  0
 18 20  2  0  0  0
 19 20  1  0  0  0
 19 21  1  0  0  0
 20 22  1  0  0  0
 22 25  2  0  0  0
 22 26  1  0  0  0
 23 24  2  0  0  0
 23 25  1  0  0  0
 24 26  1  0  0  0
M  END
> <s_m_entry_id>
886

> <s_m_entry_name>
10-myco-1_32_lig_gen_fit_add_gna.sdf.2

> <s_m_Source_Path>
C:\Users\maila\Downloads\mgr\myco-analysis

> <s_m_Source_File>
myco-10-var1-wzakresie.mae

> <i_m_Source_File_Index>
33

> <s_user_SMILES>
C1C=NC=C1C(=O)NCc2cc(cc(c2)OC)C3=CC=CNN3

> <minimizedAffinity>
-9.12067

> <minimizedRMSD>
1.01582

> <CNNscore>
0.9251204729

> <CNNaffinity>
6.1169099808

> <CNN_VS>
5.6588788033

> <CNNaffinity_variance>
0.0677829832

$$$$
C1N=CC=C1C(=O)NCc2cc(C)cc(c2)-c3cccnc3
                    3D
 Schrodinger Suite 2021-1.
 23 25  0  0  1  0            999 V2000
  -24.4194  -19.8751    8.4239 C   0  0  0  0  0  0
  -22.9909  -21.7120    9.1925 C   0  0  0  0  0  0
  -23.6919  -19.9633   10.7350 C   0  0  0  0  0  0
  -23.6825  -21.0436    8.1579 C   0  0  0  0  0  0
  -24.4568  -19.3731    9.7246 C   0  0  0  0  0  0
  -25.2380  -19.2018    7.3571 C   0  0  0  0  0  0
  -22.9921  -21.1424   10.4716 C   0  0  0  0  0  0
  -21.8385  -23.3580    7.6732 C   0  0  0  0  0  0
  -20.8206  -25.3398    8.5007 C   0  0  0  0  0  0
  -21.9239  -23.8474   10.0297 C   0  0  0  0  0  0
  -22.2527  -22.9875    8.9604 C   0  0  0  0  0  0
  -21.2049  -25.0205    9.8002 C   0  0  0  0  0  0
  -21.1439  -24.5104    7.4761 N   0  0  0  0  0  0
  -23.6294  -19.3533   12.0988 C   0  0  0  0  0  0
  -21.0463  -20.1045   13.0811 O   0  0  0  0  0  0
  -21.2010  -18.9089   12.7180 C   0  0  0  0  0  0
  -22.4765  -18.4631   12.2320 N   0  0  0  0  0  0
  -22.6159  -17.4494   12.0338 H   0  0  0  0  0  0
  -20.0635  -17.9791   12.8103 C   0  0  0  0  0  0
  -18.7224  -16.1055   12.7597 N   0  0  0  0  0  0
  -18.8654  -18.2940   13.2735 C   0  0  0  0  0  0
  -20.0730  -16.5361   12.4290 C   0  0  0  0  0  0
  -18.0599  -17.0999   13.2376 C   0  0  0  0  0  0
  1  4  2  0  0  0
  1  5  1  0  0  0
  1  6  1  0  0  0
  2  4  1  0  0  0
  2  7  2  0  0  0
  2 11  1  0  0  0
  3  5  2  0  0  0
  3 14  1  0  0  0
  3  7  1  0  0  0
  8 11  2  0  0  0
  8 13  1  0  0  0
  9 12  1  0  0  0
  9 13  2  0  0  0
 10 11  1  0  0  0
 10 12  2  0  0  0
 14 17  1  0  0  0
 15 16  2  0  0  0
 16 19  1  0  0  0
 16 17  1  0  0  0
 17 18  1  0  0  0
 19 21  2  0  0  0
 19 22  1  0  0  0
 20 22  1  0  0  0
 20 23  2  0  0  0
 21 23  1  0  0  0
M  END
> <s_m_entry_id>
887

> <s_m_entry_name>
10-myco-1_32_lig_gen_fit_add_gna.sdf.6

> <s_m_Source_Path>
C:\Users\maila\Downloads\mgr\myco-analysis

> <s_m_Source_File>
myco-10-var1-wzakresie.mae

> <i_m_Source_File_Index>
34

> <s_user_SMILES>
C1N=CC=C1C(=O)NCc2cc(C)cc(c2)-c3cccnc3

> <minimizedAffinity>
-8.78603

> <minimizedRMSD>
0.44953

> <CNNscore>
0.7764356732

> <CNNaffinity>
6.167239666

> <CNN_VS>
4.788465023

> <CNNaffinity_variance>
0.1663915217

$$$$
c1cnccc1C(=O)CCc2cc(cc(c2)OC)-c3cccnc3
                    3D
 Schrodinger Suite 2021-1.
 24 26  0  0  1  0            999 V2000
  -22.2423  -22.3198    9.0189 C   0  0  0  0  0  0
  -22.7215  -21.6603    7.8798 C   0  0  0  0  0  0
  -23.5134  -20.7783   10.4110 C   0  0  0  0  0  0
  -22.6448  -21.8737   10.2841 C   0  0  0  0  0  0
  -23.5947  -20.5749    7.9830 C   0  0  0  0  0  0
  -23.9983  -20.1387    9.2581 C   0  0  0  0  0  0
  -19.7713  -25.7395    8.4194 C   0  0  0  0  0  0
  -21.7182  -24.7384    9.4252 C   0  0  0  0  0  0
  -19.4153  -24.5284    7.9171 N   0  0  0  0  0  0
  -20.1738  -23.4191    8.1232 C   0  0  0  0  0  0
  -21.3594  -23.4995    8.8727 C   0  0  0  0  0  0
  -20.9327  -25.8649    9.1827 C   0  0  0  0  0  0
  -25.1549  -19.1084    6.6722 C   0  0  0  0  0  0
  -24.0265  -19.9668    6.7931 O   0  0  0  0  0  0
  -23.9302  -20.2997   11.7764 C   0  0  0  0  0  0
  -23.1992  -19.0139   12.1965 C   0  0  0  0  0  0
  -21.4788  -20.3665   13.1698 O   0  0  0  0  0  0
  -21.7938  -19.2372   12.7110 C   0  0  0  0  0  0
  -19.4179  -18.4535   12.4804 C   0  0  0  0  0  0
  -20.1594  -15.8113   12.8187 C   0  0  0  0  0  0
  -20.7746  -18.1526   12.7003 C   0  0  0  0  0  0
  -21.1358  -16.8084   12.8865 C   0  0  0  0  0  0
  -18.8628  -16.1410   12.5912 N   0  0  0  0  0  0
  -18.4737  -17.4292   12.4286 C   0  0  0  0  0  0
  1  2  2  0  0  0
  1  4  1  0  0  0
  1 11  1  0  0  0
  2  5  1  0  0  0
  3  4  2  0  0  0
  3 15  1  0  0  0
  3  6  1  0  0  0
  5 14  1  0  0  0
  5  6  2  0  0  0
  7  9  2  0  0  0
  7 12  1  0  0  0
  8 11  1  0  0  0
  8 12  2  0  0  0
  9 10  1  0  0  0
 10 11  2  0  0  0
 13 14  1  0  0  0
 15 16  1  0  0  0
 16 18  1  0  0  0
 17 18  2  0  0  0
 18 21  1  0  0  0
 19 21  2  0  0  0
 19 24  1  0  0  0
 20 22  2  0  0  0
 20 23  1  0  0  0
 21 22  1  0  0  0
 23 24  2  0  0  0
M  END
> <s_m_entry_id>
888

> <s_m_entry_name>
10-myco-1_32_lig_gen_fit_add_gna.sdf.8

> <s_m_Source_Path>
C:\Users\maila\Downloads\mgr\myco-analysis

> <s_m_Source_File>
myco-10-var1-wzakresie.mae

> <i_m_Source_File_Index>
35

> <s_user_SMILES>
c1cnccc1C(=O)CCc2cc(cc(c2)OC)-c3cccnc3

> <minimizedAffinity>
-8.71209

> <minimizedRMSD>
0.75993

> <CNNscore>
0.8453705311

> <CNNaffinity>
6.3494243622

> <CNN_VS>
5.3676161766

> <CNNaffinity_variance>
0.1346328706

$$$$
[H]\N=C\c1cc(n[nH]1)CCC2=CC(=CC2)Nc(cc3)ccc3C
                    3D
 Schrodinger Suite 2021-1.
 25 27  0  0  1  0            999 V2000
  -23.8537   20.0682  -11.1478 C   0  0  0  0  0  0
  -25.0026   22.0198  -10.6474 C   0  0  0  0  0  0
  -23.0195   21.0977  -11.2489 C   0  0  0  0  0  0
  -23.7347   22.3075  -10.9025 C   0  0  0  0  0  0
  -25.2242   20.5532  -10.7910 C   0  0  0  0  0  0
  -23.1747   23.6260  -10.9847 N   0  0  0  0  0  0
  -23.5882   24.2889  -11.6782 H   0  0  0  0  0  0
  -22.1886   24.1256  -10.0713 C   0  0  0  0  0  0
  -20.2471   25.1312   -8.3032 C   0  0  0  0  0  0
  -21.4716   23.2534   -9.2371 C   0  0  0  0  0  0
  -21.9164   25.4992  -10.0289 C   0  0  0  0  0  0
  -20.5132   23.7542   -8.3520 C   0  0  0  0  0  0
  -19.2456   25.6736   -7.3276 C   0  0  0  0  0  0
  -20.9646   26.0023   -9.1372 C   0  0  0  0  0  0
  -23.5769   18.6398  -11.5510 C   0  0  0  0  0  0
  -22.7164   18.4429  -12.8124 C   0  0  0  0  0  0
  -19.2130   17.6182  -12.2027 C   0  0  0  0  0  0
  -20.3972   19.4165  -12.5285 N   0  0  0  0  0  0
  -20.5034   17.1951  -12.3968 C   0  0  0  0  0  0
  -19.1814   18.9547  -12.2858 N   0  0  0  0  0  0
  -21.2300   18.3574  -12.5795 C   0  0  0  0  0  0
  -18.3466   19.5470  -12.1187 H   0  0  0  0  0  0
  -18.0481   16.7706  -11.9259 C   0  0  0  0  0  0
  -17.5560   16.0196  -12.8572 N   0  0  0  0  0  0
  -16.7319   15.4050  -12.6812 H   0  0  0  0  0  0
  1 15  1  0  0  0
  1  3  2  0  0  0
  1  5  1  0  0  0
  2  4  2  0  0  0
  2  5  1  0  0  0
  3  4  1  0  0  0
  4  6  1  0  0  0
  6  8  1  0  0  0
  6  7  1  0  0  0
  8 10  2  0  0  0
  8 11  1  0  0  0
  9 12  2  0  0  0
  9 13  1  0  0  0
  9 14  1  0  0  0
 10 12  1  0  0  0
 11 14  2  0  0  0
 15 16  1  0  0  0
 16 21  1  0  0  0
 17 23  1  0  0  0
 17 19  2  0  0  0
 17 20  1  0  0  0
 18 20  1  0  0  0
 18 21  2  0  0  0
 19 21  1  0  0  0
 20 22  1  0  0  0
 23 24  2  0  0  0
 24 25  1  0  0  0
M  END
> <s_m_entry_id>
889

> <s_m_entry_name>
10-myco-1_35_lig_gen_fit_add_gna.sdf.3

> <s_m_Source_Path>
C:\Users\maila\Downloads\mgr\myco-analysis

> <s_m_Source_File>
myco-10-var1-wzakresie.mae

> <i_m_Source_File_Index>
36

> <s_user_SMILES>
[H]\N=C\c1cc(n[nH]1)CCC2=CC(=CC2)Nc(cc3)ccc3C

> <minimizedAffinity>
-8.85046

> <minimizedRMSD>
2.04696

> <CNNscore>
0.9612260461

> <CNNaffinity>
6.6993589401

> <CNN_VS>
6.4395980835

> <CNNaffinity_variance>
0.1337007433

$$$$
CC(=O)c1ccc(cc1)CC=2C=CC(C23)=CC(=C3)C4=NN=C(C4)N
                    3D
 Schrodinger Suite 2021-1.
 26 29  0  0  1  0            999 V2000
  -25.5856   20.1763  -10.4333 C   0  0  0  0  0  0
  -23.5536   20.3097  -11.3363 C   0  0  0  0  0  0
  -23.1677   18.2476  -12.0852 C   0  0  0  0  0  0
  -24.0665   19.0286  -11.5361 C   0  0  0  0  0  0
  -25.3811   18.9581  -10.9471 C   0  0  0  0  0  0
  -24.4106   21.0376  -10.6532 C   0  0  0  0  0  0
  -21.9787   19.0890  -12.2666 C   0  0  0  0  0  0
  -22.2050   20.3469  -11.8431 C   0  0  0  0  0  0
  -18.8001   17.3434  -12.8071 C   0  0  0  0  0  0
  -20.6658   18.5639  -12.6057 C   0  0  0  0  0  0
  -17.8360   16.3385  -12.5997 N   0  0  0  0  0  0
  -18.4783   18.5814  -12.7756 N   0  0  0  0  0  0
  -20.2750   17.1331  -12.7206 C   0  0  0  0  0  0
  -19.6420   19.3250  -12.6488 N   0  0  0  0  0  0
  -18.1272   15.5230  -12.0335 H   0  0  0  0  0  0
  -16.8284   16.5336  -12.7760 H   0  0  0  0  0  0
  -24.2875   22.4653  -10.2403 C   0  0  0  0  0  0
  -21.9393   22.4993   -7.2524 C   0  0  0  0  0  0
  -20.9843   23.8803   -8.9994 C   0  0  0  0  0  0
  -22.9958   22.1588   -8.1010 C   0  0  0  0  0  0
  -20.9348   23.3804   -7.6885 C   0  0  0  0  0  0
  -22.0510   23.5546   -9.8395 C   0  0  0  0  0  0
  -23.0741   22.7080   -9.3883 C   0  0  0  0  0  0
  -18.7252   23.2473   -6.8489 O   0  0  0  0  0  0
  -20.0212   24.9908   -5.8750 C   0  0  0  0  0  0
  -19.8509   23.8103   -6.7824 C   0  0  0  0  0  0
  1  5  2  0  0  0
  1  6  1  0  0  0
  2  4  1  0  0  0
  2  6  2  0  0  0
  2  8  1  0  0  0
  3  4  2  0  0  0
  3  7  1  0  0  0
  4  5  1  0  0  0
  6 17  1  0  0  0
  7 10  1  0  0  0
  7  8  2  0  0  0
  9 11  1  0  0  0
  9 12  2  0  0  0
  9 13  1  0  0  0
 10 13  1  0  0  0
 10 14  2  0  0  0
 11 15  1  0  0  0
 11 16  1  0  0  0
 12 14  1  0  0  0
 17 23  1  0  0  0
 18 20  2  0  0  0
 18 21  1  0  0  0
 19 21  2  0  0  0
 19 22  1  0  0  0
 20 23  1  0  0  0
 21 26  1  0  0  0
 22 23  2  0  0  0
 24 26  2  0  0  0
 25 26  1  0  0  0
M  END
> <s_m_entry_id>
890

> <s_m_entry_name>
10-myco-1_35_lig_gen_fit_add_gna.sdf.4

> <s_m_Source_Path>
C:\Users\maila\Downloads\mgr\myco-analysis

> <s_m_Source_File>
myco-10-var1-wzakresie.mae

> <i_m_Source_File_Index>
37

> <s_user_SMILES>
CC(=O)c1ccc(cc1)CC=2C=CC(C23)=CC(=C3)C4=NN=C(C4)N

> <minimizedAffinity>
-9.52007

> <minimizedRMSD>
0.58575

> <CNNscore>
0.9218831658

> <CNNaffinity>
6.8371138573

> <CNN_VS>
6.3030200005

> <CNNaffinity_variance>
0.0287343077

$$$$
COc(cc1)ccc1Cn(cc2)c(c23)cc(cc3)C4=CN=C(C4)N
                    3D
 Schrodinger Suite 2021-1.
 26 29  0  0  1  0            999 V2000
  -24.6675   20.0578  -10.9546 C   0  0  0  0  0  0
  -24.6273   18.7432  -11.3952 C   0  0  0  0  0  0
  -23.6420   20.9259  -11.1673 C   0  0  0  0  0  0
  -25.6382   20.7368  -10.2742 C   0  0  0  0  0  0
  -22.5000   20.5282  -11.8331 C   0  0  0  0  0  0
  -22.3311   19.1494  -12.1223 C   0  0  0  0  0  0
  -23.9321   22.1444  -10.6753 N   0  0  0  0  0  0
  -25.1631   22.0307  -10.1280 C   0  0  0  0  0  0
  -23.4218   18.2787  -11.9515 C   0  0  0  0  0  0
  -19.0136   17.4614  -12.4401 C   0  0  0  0  0  0
  -19.9307   19.3933  -12.4050 C   0  0  0  0  0  0
  -18.7100   18.7035  -12.4426 N   0  0  0  0  0  0
  -20.4935   17.2037  -12.3800 C   0  0  0  0  0  0
  -18.0182   16.4997  -12.1684 N   0  0  0  0  0  0
  -20.9834   18.6168  -12.4215 C   0  0  0  0  0  0
  -18.1769   15.8965  -11.3426 H   0  0  0  0  0  0
  -17.0355   16.6667  -12.4772 H   0  0  0  0  0  0
  -23.1063   23.3544  -10.7203 C   0  0  0  0  0  0
  -22.2191   23.5177   -9.5061 C   0  0  0  0  0  0
  -20.8080   24.1768   -7.1521 C   0  0  0  0  0  0
  -20.5374   24.8457   -8.3497 C   0  0  0  0  0  0
  -22.4396   22.8008   -8.3154 C   0  0  0  0  0  0
  -21.7409   23.1264   -7.1509 C   0  0  0  0  0  0
  -21.2490   24.5340   -9.5117 C   0  0  0  0  0  0
  -20.1524   24.5949   -5.9855 O   0  0  0  0  0  0
  -20.7624   25.3907   -4.9730 C   0  0  0  0  0  0
  1  2  2  0  0  0
  1  3  1  0  0  0
  1  4  1  0  0  0
  2  9  1  0  0  0
  3  5  2  0  0  0
  3  7  1  0  0  0
  4  8  2  0  0  0
  5  6  1  0  0  0
  6  9  2  0  0  0
  6 15  1  0  0  0
  7 18  1  0  0  0
  7  8  1  0  0  0
 10 12  2  0  0  0
 10 13  1  0  0  0
 10 14  1  0  0  0
 11 12  1  0  0  0
 11 15  2  0  0  0
 13 15  1  0  0  0
 14 16  1  0  0  0
 14 17  1  0  0  0
 18 19  1  0  0  0
 19 22  2  0  0  0
 19 24  1  0  0  0
 20 21  1  0  0  0
 20 25  1  0  0  0
 20 23  2  0  0  0
 21 24  2  0  0  0
 22 23  1  0  0  0
 25 26  1  0  0  0
M  END
> <s_m_entry_id>
891

> <s_m_entry_name>
10-myco-1_35_lig_gen_fit_add_gna.sdf.8

> <s_m_Source_Path>
C:\Users\maila\Downloads\mgr\myco-analysis

> <s_m_Source_File>
myco-10-var1-wzakresie.mae

> <i_m_Source_File_Index>
38

> <s_user_SMILES>
COc(cc1)ccc1Cn(cc2)c(c23)cc(cc3)C4=CN=C(C4)N

> <minimizedAffinity>
-9.29207

> <minimizedRMSD>
0.46656

> <CNNscore>
0.9709638953

> <CNNaffinity>
6.6693410873

> <CNN_VS>
6.4756894112

> <CNNaffinity_variance>
0.0524397194

$$$$
c1cc(CO)ccc1CC=2C=CC(C23)=CC(=C3)C4=NC(=C4)N
                    3D
 Schrodinger Suite 2021-1.
 25 28  0  0  1  0            999 V2000
  -23.7404   19.0182  -11.6783 C   0  0  0  0  0  0
  -22.8604   18.1380  -12.1009 C   0  0  0  0  0  0
  -23.1650   20.2853  -11.5566 C   0  0  0  0  0  0
  -21.6048   18.8946  -12.2766 C   0  0  0  0  0  0
  -24.0258   21.1123  -10.9864 C   0  0  0  0  0  0
  -25.0920   19.0670  -11.1677 C   0  0  0  0  0  0
  -25.2622   20.3302  -10.7568 C   0  0  0  0  0  0
  -21.7807   20.1978  -11.9841 C   0  0  0  0  0  0
  -19.8539   16.8783  -12.6045 C   0  0  0  0  0  0
  -18.6532   17.3254  -12.9142 C   0  0  0  0  0  0
  -19.1219   18.6660  -12.7944 N   0  0  0  0  0  0
  -20.3199   18.2525  -12.5441 C   0  0  0  0  0  0
  -17.4062   16.7338  -13.2470 N   0  0  0  0  0  0
  -16.6428   17.3151  -13.6388 H   0  0  0  0  0  0
  -17.2540   15.7138  -13.1600 H   0  0  0  0  0  0
  -23.8669   22.5758  -10.7250 C   0  0  0  0  0  0
  -20.8530   24.0670   -8.9521 C   0  0  0  0  0  0
  -22.9713   22.3318   -8.3789 C   0  0  0  0  0  0
  -20.9872   23.5370   -7.6611 C   0  0  0  0  0  0
  -22.8363   22.8646   -9.6705 C   0  0  0  0  0  0
  -21.7723   23.7359   -9.9485 C   0  0  0  0  0  0
  -22.0506   22.6642   -7.3806 C   0  0  0  0  0  0
  -19.9729   23.8606   -6.6001 C   0  0  0  0  0  0
  -18.7759   23.1764   -6.8512 O   0  0  0  0  0  0
  -18.3381   23.6407   -7.6123 H   0  0  0  0  0  0
  1  2  2  0  0  0
  1  3  1  0  0  0
  1  6  1  0  0  0
  2  4  1  0  0  0
  3  5  2  0  0  0
  3  8  1  0  0  0
  4 12  1  0  0  0
  4  8  2  0  0  0
  5  7  1  0  0  0
  5 16  1  0  0  0
  6  7  2  0  0  0
  9 10  2  0  0  0
  9 12  1  0  0  0
 10 11  1  0  0  0
 10 13  1  0  0  0
 11 12  2  0  0  0
 13 14  1  0  0  0
 13 15  1  0  0  0
 16 20  1  0  0  0
 17 19  2  0  0  0
 17 21  1  0  0  0
 18 20  1  0  0  0
 18 22  2  0  0  0
 19 23  1  0  0  0
 19 22  1  0  0  0
 20 21  2  0  0  0
 23 24  1  0  0  0
 24 25  1  0  0  0
M  END
> <s_m_entry_id>
892

> <s_m_entry_name>
10-myco-1_35_lig_gen_fit_add_gna.sdf.10

> <s_m_Source_Path>
C:\Users\maila\Downloads\mgr\myco-analysis

> <s_m_Source_File>
myco-10-var1-wzakresie.mae

> <i_m_Source_File_Index>
39

> <s_user_SMILES>
c1cc(CO)ccc1CC=2C=CC(C23)=CC(=C3)C4=NC(=C4)N

> <minimizedAffinity>
-9.41968

> <minimizedRMSD>
0.39133

> <CNNscore>
0.9147408605

> <CNNaffinity>
6.4902877808

> <CNN_VS>
5.9369316101

> <CNNaffinity_variance>
0.0490670018

$$$$
Nc1n[nH]c(c1C#N)-c(cc2)cc(c23)CC=C3
                    3D
 Schrodinger Suite 2021-1.
 20 22  0  0  1  0            999 V2000
  -20.4483   19.0751  -12.4927 C   0  0  0  0  0  0
  -19.9248   17.8153  -12.7767 C   0  0  0  0  0  0
  -19.4052   19.9214  -12.3741 N   0  0  0  0  0  0
  -18.5705   18.0375  -12.9267 C   0  0  0  0  0  0
  -18.2751   19.3124  -12.6692 N   0  0  0  0  0  0
  -17.5838   17.0750  -13.2667 N   0  0  0  0  0  0
  -19.4337   20.9019  -12.0226 H   0  0  0  0  0  0
  -16.6283   17.3871  -13.5392 H   0  0  0  0  0  0
  -17.8185   16.0685  -13.3060 H   0  0  0  0  0  0
  -22.9142   18.6130  -12.0370 C   0  0  0  0  0  0
  -23.2726   21.3137  -11.4811 C   0  0  0  0  0  0
  -24.2544   20.4134  -11.1828 C   0  0  0  0  0  0
  -23.6381   22.6690  -10.9836 C   0  0  0  0  0  0
  -22.0902   20.9079  -12.0799 C   0  0  0  0  0  0
  -25.3093   21.0994  -10.4771 C   0  0  0  0  0  0
  -24.9768   22.3817  -10.3655 C   0  0  0  0  0  0
  -24.1343   19.0672  -11.5054 C   0  0  0  0  0  0
  -21.8529   19.5222  -12.2721 C   0  0  0  0  0  0
  -20.9695   15.4707  -12.4373 N   0  0  0  0  0  0
  -20.5200   16.5220  -12.6044 C   0  0  0  0  0  0
  1  2  2  0  0  0
  1  3  1  0  0  0
  1 18  1  0  0  0
  2  4  1  0  0  0
  2 20  1  0  0  0
  3  5  1  0  0  0
  3  7  1  0  0  0
  4  5  2  0  0  0
  4  6  1  0  0  0
  6  8  1  0  0  0
  6  9  1  0  0  0
 10 17  2  0  0  0
 10 18  1  0  0  0
 11 12  2  0  0  0
 11 13  1  0  0  0
 11 14  1  0  0  0
 12 15  1  0  0  0
 12 17  1  0  0  0
 13 16  1  0  0  0
 14 18  2  0  0  0
 15 16  2  0  0  0
 19 20  3  0  0  0
M  END
> <s_m_entry_id>
893

> <s_m_entry_name>
10-myco-1_36_lig_gen_fit_add_gna.sdf.10

> <s_m_Source_Path>
C:\Users\maila\Downloads\mgr\myco-analysis

> <s_m_Source_File>
myco-10-var1-wzakresie.mae

> <i_m_Source_File_Index>
40

> <s_user_SMILES>
Nc1n[nH]c(c1C#N)-c(cc2)cc(c23)CC=C3

> <minimizedAffinity>
-8.71667

> <minimizedRMSD>
0.23179

> <CNNscore>
0.988345623

> <CNNaffinity>
6.2782554626

> <CNN_VS>
6.2050862312

> <CNNaffinity_variance>
0.0602350906

$$$$
n1[nH]c(N)cc1C(C2)=CC=C(C2=3)C=NC3Nc4c(O)cccc4
                    3D
 Schrodinger Suite 2021-1.
 28 31  0  0  1  0            999 V2000
  -22.2383  -19.2748   12.1024 C   0  0  0  0  0  0
  -24.6095  -18.9607   11.4331 C   0  0  0  0  0  0
  -23.3065  -18.4586   11.9411 C   0  0  0  0  0  0
  -24.6947  -20.2387   11.0822 C   0  0  0  0  0  0
  -22.3303  -20.7843   11.8908 C   0  0  0  0  0  0
  -25.3392  -22.2162   10.2017 N   0  0  0  0  0  0
  -23.9975  -22.2936   10.6916 C   0  0  0  0  0  0
  -23.6034  -21.1482   11.2140 C   0  0  0  0  0  0
  -25.7484  -21.0083   10.4435 C   0  0  0  0  0  0
  -19.8429  -19.5432   12.5355 N   0  0  0  0  0  0
  -19.1181  -17.5257   12.5999 C   0  0  0  0  0  0
  -20.9120  -18.7426   12.4566 C   0  0  0  0  0  0
  -20.4931  -17.4223   12.4982 C   0  0  0  0  0  0
  -18.1871  -16.4918   12.3475 N   0  0  0  0  0  0
  -18.7595  -18.8061   12.6470 N   0  0  0  0  0  0
  -18.4870  -15.7060   11.7460 H   0  0  0  0  0  0
  -17.1682  -16.6512   12.5078 H   0  0  0  0  0  0
  -17.7872  -19.1805   12.6601 H   0  0  0  0  0  0
  -23.1851  -23.4639   10.6086 N   0  0  0  0  0  0
  -23.0997  -24.0377   11.4770 H   0  0  0  0  0  0
  -22.3976  -23.8251    9.4564 C   0  0  0  0  0  0
  -22.5022  -23.1567    8.2094 C   0  0  0  0  0  0
  -21.4601  -24.8625    9.5927 C   0  0  0  0  0  0
  -20.7768  -24.5988    7.2888 C   0  0  0  0  0  0
  -21.6958  -23.5603    7.1341 C   0  0  0  0  0  0
  -23.3856  -22.0931    8.0308 O   0  0  0  0  0  0
  -20.6541  -25.2441    8.5187 C   0  0  0  0  0  0
  -23.4616  -21.6031    7.1470 H   0  0  0  0  0  0
  1 12  1  0  0  0
  1  3  2  0  0  0
  1  5  1  0  0  0
  2  3  1  0  0  0
  2  4  2  0  0  0
  4  8  1  0  0  0
  4  9  1  0  0  0
  5  8  1  0  0  0
  6  7  1  0  0  0
  6  9  2  0  0  0
  7 19  1  0  0  0
  7  8  2  0  0  0
 10 12  2  0  0  0
 10 15  1  0  0  0
 11 13  2  0  0  0
 11 14  1  0  0  0
 11 15  1  0  0  0
 12 13  1  0  0  0
 14 16  1  0  0  0
 14 17  1  0  0  0
 15 18  1  0  0  0
 19 21  1  0  0  0
 19 20  1  0  0  0
 21 22  2  0  0  0
 21 23  1  0  0  0
 22 25  1  0  0  0
 22 26  1  0  0  0
 23 27  2  0  0  0
 24 25  2  0  0  0
 24 27  1  0  0  0
 26 28  1  0  0  0
M  END
> <s_m_entry_id>
894

> <s_m_entry_name>
10-myco-1_37_lig_gen_fit_add_gna.sdf.1

> <s_m_Source_Path>
C:\Users\maila\Downloads\mgr\myco-analysis

> <s_m_Source_File>
myco-10-var1-wzakresie.mae

> <i_m_Source_File_Index>
41

> <s_user_SMILES>
n1[nH]c(N)cc1C(C2)=CC=C(C2=3)C=NC3Nc4c(O)cccc4

> <minimizedAffinity>
-11.09227

> <minimizedRMSD>
0.42461

> <CNNscore>
0.9723593593

> <CNNaffinity>
6.6770987511

> <CNN_VS>
6.4925394058

> <CNNaffinity_variance>
0.1384741366

$$$$
C1=CCC(=C1CN)Cn2ccc(c23)C=C3C4=CN=C(C4)N
                    3D
 Schrodinger Suite 2021-1.
 25 28  0  0  1  0            999 V2000
  -24.5943  -22.2394   10.0705 C   0  0  0  0  0  0
  -23.4494  -19.4733   11.6791 C   0  0  0  0  0  0
  -24.8293  -19.0875   11.4623 C   0  0  0  0  0  0
  -25.0157  -20.2734   10.8930 C   0  0  0  0  0  0
  -23.7420  -20.6104   11.0653 C   0  0  0  0  0  0
  -23.3940  -21.7965   10.5814 N   0  0  0  0  0  0
  -25.6559  -21.3011   10.2608 C   0  0  0  0  0  0
  -20.5953  -17.3905   12.7341 C   0  0  0  0  0  0
  -20.0444  -18.5554   12.6911 N   0  0  0  0  0  0
  -22.0689  -17.4137   12.5317 C   0  0  0  0  0  0
  -19.8457  -16.2060   12.9563 N   0  0  0  0  0  0
  -21.0845  -19.4730   12.4031 C   0  0  0  0  0  0
  -22.2461  -18.8598   12.2506 C   0  0  0  0  0  0
  -18.8140  -16.2665   13.1036 H   0  0  0  0  0  0
  -20.3260  -15.2788   12.9558 H   0  0  0  0  0  0
  -22.0526  -22.3673   10.5483 C   0  0  0  0  0  0
  -21.9200  -23.5862    9.6847 C   0  0  0  0  0  0
  -21.1843  -25.7001    9.1153 C   0  0  0  0  0  0
  -21.1634  -24.9356    8.0391 C   0  0  0  0  0  0
  -21.6489  -23.6089    8.3727 C   0  0  0  0  0  0
  -21.7059  -24.9434   10.2809 C   0  0  0  0  0  0
  -21.5290  -22.4578    7.4056 C   0  0  0  0  0  0
  -22.8303  -21.9215    7.0174 N   0  0  0  0  0  0
  -23.1054  -21.1880    7.7061 H   0  0  0  0  0  0
  -22.7102  -21.4119    6.1122 H   0  0  0  0  0  0
  1  6  1  0  0  0
  1  7  2  0  0  0
  2  3  2  0  0  0
  2  5  1  0  0  0
  2 13  1  0  0  0
  3  4  1  0  0  0
  4  5  2  0  0  0
  4  7  1  0  0  0
  5  6  1  0  0  0
  6 16  1  0  0  0
  8  9  2  0  0  0
  8 10  1  0  0  0
  8 11  1  0  0  0
  9 12  1  0  0  0
 10 13  1  0  0  0
 11 14  1  0  0  0
 11 15  1  0  0  0
 12 13  2  0  0  0
 16 17  1  0  0  0
 17 20  2  0  0  0
 17 21  1  0  0  0
 18 19  2  0  0  0
 18 21  1  0  0  0
 19 20  1  0  0  0
 20 22  1  0  0  0
 22 23  1  0  0  0
 23 24  1  0  0  0
 23 25  1  0  0  0
M  END
> <s_m_entry_id>
895

> <s_m_entry_name>
10-myco-1_37_lig_gen_fit_add_gna.sdf.2

> <s_m_Source_Path>
C:\Users\maila\Downloads\mgr\myco-analysis

> <s_m_Source_File>
myco-10-var1-wzakresie.mae

> <i_m_Source_File_Index>
42

> <s_user_SMILES>
C1=CCC(=C1CN)Cn2ccc(c23)C=C3C4=CN=C(C4)N

> <minimizedAffinity>
-8.13046

> <minimizedRMSD>
0.38743

> <CNNscore>
0.5951449871

> <CNNaffinity>
6.0478138924

> <CNN_VS>
3.5993261337

> <CNNaffinity_variance>
0.130349651

$$$$
C1C=CC(C)=C1CC=2CC(C23)=CC=C3C4=C[C@@H](N)N=N4
                    3D
 Schrodinger Suite 2021-1.
 22 25  0  0  1  0            999 V2000
  -23.5920  -20.7580   11.2936 C   0  0  0  0  0  0
  -23.4754  -22.0335   10.8022 C   0  0  0  0  0  0
  -24.2571  -18.7079   11.7630 C   0  0  0  0  0  0
  -23.1667  -19.5058   11.8773 C   0  0  0  0  0  0
  -25.4122  -19.4102   11.1228 C   0  0  0  0  0  0
  -24.9670  -20.6205   10.8991 C   0  0  0  0  0  0
  -24.8955  -21.9842   10.4802 C   0  0  0  0  0  0
  -21.3880  -17.8221   12.2672 C   0  0  0  0  0  0
  -21.8116  -19.0755   12.2535 C   0  0  0  0  0  0
  -20.7189  -19.9582   12.4141 N   0  0  0  0  0  0
  -19.9014  -17.8616   12.3427 C   0  0  1  0  0  0
  -19.4133  -17.1200   13.4925 N   0  0  0  0  0  0
  -19.6420  -19.2873   12.4910 N   0  0  0  0  0  0
  -18.3698  -17.1930   13.4980 H   0  0  0  0  0  0
  -19.6459  -16.1134   13.3298 H   0  0  0  0  0  0
  -22.3648  -23.0168   10.6692 C   0  0  0  0  0  0
  -22.1845  -23.5769    9.2792 C   0  0  0  0  0  0
  -21.8774  -23.8199    7.0398 C   0  0  0  0  0  0
  -21.3611  -24.9112    7.5716 C   0  0  0  0  0  0
  -22.3693  -22.9631    8.1031 C   0  0  0  0  0  0
  -22.9899  -21.6271    7.8412 C   0  0  0  0  0  0
  -21.5148  -24.8969    9.0541 C   0  0  0  0  0  0
  1  2  2  0  0  0
  1  4  1  0  0  0
  1  6  1  0  0  0
  2 16  1  0  0  0
  2  7  1  0  0  0
  3  4  2  0  0  0
  3  5  1  0  0  0
  4  9  1  0  0  0
  5  6  2  0  0  0
  6  7  1  0  0  0
  8  9  2  0  0  0
  8 11  1  0  0  0
  9 10  1  0  0  0
 10 13  2  0  0  0
 11 12  1  0  0  0
 11 13  1  0  0  0
 12 14  1  0  0  0
 12 15  1  0  0  0
 16 17  1  0  0  0
 17 20  2  0  0  0
 17 22  1  0  0  0
 18 19  2  0  0  0
 18 20  1  0  0  0
 19 22  1  0  0  0
 20 21  1  0  0  0
M  END
> <s_m_entry_id>
896

> <s_m_entry_name>
10-myco-1_37_lig_gen_fit_add_gna.sdf.3

> <s_m_Source_Path>
C:\Users\maila\Downloads\mgr\myco-analysis

> <s_m_Source_File>
myco-10-var1-wzakresie.mae

> <i_m_Source_File_Index>
43

> <s_user_SMILES>
C1C=CC(C)=C1CC=2CC(C23)=CC=C3C4=C[C@@H](N)N=N4

> <minimizedAffinity>
-8.66744

> <minimizedRMSD>
0.38784

> <CNNscore>
0.739002347

> <CNNaffinity>
6.3756170273

> <CNN_VS>
4.7115960121

> <CNNaffinity_variance>
0.0888117701

$$$$
c1cccc(c1CN)CN(C=C2)[C@@H](C2=3)C=C(C3)c4ccn[nH]4
                    3D
 Schrodinger Suite 2021-1.
 25 28  0  0  1  0            999 V2000
  -24.0156  -19.2540   11.0788 C   0  0  0  0  0  0
  -23.4434  -18.4368   11.9366 C   0  0  0  0  0  0
  -23.1689  -20.4304   10.8071 C   0  0  1  0  0  0
  -25.3989  -20.9899   11.0679 C   0  0  0  0  0  0
  -22.1567  -20.3251   11.9018 C   0  0  0  0  0  0
  -25.3918  -19.6722   11.1732 C   0  0  0  0  0  0
  -24.1006  -21.5467   10.8051 N   0  0  0  0  0  0
  -22.2034  -19.0722   12.3704 C   0  0  0  0  0  0
  -21.0464  -18.2875   12.8403 C   0  0  0  0  0  0
  -19.7426  -16.5717   13.1954 C   0  0  0  0  0  0
  -18.9659  -17.6561   13.0123 N   0  0  0  0  0  0
  -21.0688  -16.9324   13.0906 C   0  0  0  0  0  0
  -19.7615  -18.6910   12.7959 N   0  0  0  0  0  0
  -19.4104  -19.6365   12.5402 H   0  0  0  0  0  0
  -24.0366  -22.6637    9.8490 C   0  0  0  0  0  0
  -22.6764  -22.0710    7.6939 C   0  0  0  0  0  0
  -20.7928  -24.0380    8.4367 C   0  0  0  0  0  0
  -22.8021  -22.7537    8.9534 C   0  0  0  0  0  0
  -21.5893  -22.4072    6.8531 C   0  0  0  0  0  0
  -20.6685  -23.3842    7.2191 C   0  0  0  0  0  0
  -21.8392  -23.7202    9.3008 C   0  0  0  0  0  0
  -23.6535  -20.7495    5.8233 N   0  0  0  0  0  0
  -23.6073  -20.9316    7.2761 C   0  0  0  0  0  0
  -24.4635  -20.1278    5.6026 H   0  0  0  0  0  0
  -22.8138  -20.1962    5.5338 H   0  0  0  0  0  0
  1  2  2  0  0  0
  1  3  1  0  0  0
  1  6  1  0  0  0
  2  8  1  0  0  0
  3  5  1  0  0  0
  3  7  1  0  0  0
  4  6  2  0  0  0
  4  7  1  0  0  0
  5  8  2  0  0  0
  7 15  1  0  0  0
  8  9  1  0  0  0
  9 12  2  0  0  0
  9 13  1  0  0  0
 10 11  2  0  0  0
 10 12  1  0  0  0
 11 13  1  0  0  0
 13 14  1  0  0  0
 15 18  1  0  0  0
 16 18  2  0  0  0
 16 19  1  0  0  0
 16 23  1  0  0  0
 17 20  1  0  0  0
 17 21  2  0  0  0
 18 21  1  0  0  0
 19 20  2  0  0  0
 22 23  1  0  0  0
 22 24  1  0  0  0
 22 25  1  0  0  0
M  END
> <s_m_entry_id>
897

> <s_m_entry_name>
10-myco-1_37_lig_gen_fit_add_gna.sdf.4

> <s_m_Source_Path>
C:\Users\maila\Downloads\mgr\myco-analysis

> <s_m_Source_File>
myco-10-var1-wzakresie.mae

> <i_m_Source_File_Index>
44

> <s_user_SMILES>
c1cccc(c1CN)CN(C=C2)[C@@H](C2=3)C=C(C3)c4ccn[nH]4

> <minimizedAffinity>
-8.78896

> <minimizedRMSD>
0.90938

> <CNNscore>
0.7334164381

> <CNNaffinity>
6.0556726456

> <CNN_VS>
4.4413299561

> <CNNaffinity_variance>
0.362092793

$$$$
c1cccc(c1/C=N/[H])CC2=CC=C(C2=3)C=C(C3)c4ccc(cn4)N
                    3D
 Schrodinger Suite 2021-1.
 27 30  0  0  1  0            999 V2000
  -25.3641  -21.7354   10.6067 C   0  0  0  0  0  0
  -24.1026  -22.1076   10.8813 C   0  0  0  0  0  0
  -24.3591  -19.8763   11.3506 C   0  0  0  0  0  0
  -25.5215  -20.2760   10.8749 C   0  0  0  0  0  0
  -22.3134  -20.6006   11.8656 C   0  0  0  0  0  0
  -22.4379  -19.1611   12.1607 C   0  0  0  0  0  0
  -23.6727  -18.7081   11.8637 C   0  0  0  0  0  0
  -23.4656  -20.9366   11.3730 C   0  0  0  0  0  0
  -21.2583  -18.3889   12.5257 C   0  0  0  0  0  0
  -18.9119  -18.4769   12.8550 C   0  0  0  0  0  0
  -20.0964  -19.0755   12.6345 N   0  0  0  0  0  0
  -18.8440  -17.1012   12.9358 C   0  0  0  0  0  0
  -17.5661  -16.4936   13.0172 N   0  0  0  0  0  0
  -21.2491  -16.9981   12.6499 C   0  0  0  0  0  0
  -20.0280  -16.3500   12.8364 C   0  0  0  0  0  0
  -16.7731  -16.9929   13.4762 H   0  0  0  0  0  0
  -17.3326  -15.7924   12.2935 H   0  0  0  0  0  0
  -23.4785  -23.4619   10.8575 C   0  0  0  0  0  0
  -21.6765  -24.9245   10.0111 C   0  0  0  0  0  0
  -20.6405  -25.2942    9.1556 C   0  0  0  0  0  0
  -22.2071  -23.0325    8.5678 C   0  0  0  0  0  0
  -21.1351  -23.4144    7.7356 C   0  0  0  0  0  0
  -22.4708  -23.7888    9.7558 C   0  0  0  0  0  0
  -20.3607  -24.5326    8.0290 C   0  0  0  0  0  0
  -23.0533  -21.9194    8.0952 C   0  0  0  0  0  0
  -23.0011  -21.5160    6.8679 N   0  0  0  0  0  0
  -23.6423  -20.7653    6.5278 H   0  0  0  0  0  0
  1  2  2  0  0  0
  1  4  1  0  0  0
  2 18  1  0  0  0
  2  8  1  0  0  0
  3  4  2  0  0  0
  3  7  1  0  0  0
  3  8  1  0  0  0
  5  6  1  0  0  0
  5  8  2  0  0  0
  6  9  1  0  0  0
  6  7  2  0  0  0
  9 11  2  0  0  0
  9 14  1  0  0  0
 10 11  1  0  0  0
 10 12  2  0  0  0
 12 13  1  0  0  0
 12 15  1  0  0  0
 13 16  1  0  0  0
 13 17  1  0  0  0
 14 15  2  0  0  0
 18 23  1  0  0  0
 19 20  2  0  0  0
 19 23  1  0  0  0
 20 24  1  0  0  0
 21 22  1  0  0  0
 21 23  2  0  0  0
 21 25  1  0  0  0
 22 24  2  0  0  0
 25 26  2  0  0  0
 26 27  1  0  0  0
M  END
> <s_m_entry_id>
898

> <s_m_entry_name>
10-myco-1_37_lig_gen_fit_add_gna.sdf.5

> <s_m_Source_Path>
C:\Users\maila\Downloads\mgr\myco-analysis

> <s_m_Source_File>
myco-10-var1-wzakresie.mae

> <i_m_Source_File_Index>
45

> <s_user_SMILES>
c1cccc(c1/C=N/[H])CC2=CC=C(C2=3)C=C(C3)c4ccc(cn4)N

> <minimizedAffinity>
-10.61125

> <minimizedRMSD>
0.39195

> <CNNscore>
0.8667747974

> <CNNaffinity>
6.9007987976

> <CNN_VS>
5.9814386368

> <CNNaffinity_variance>
0.1294961423

$$$$
c1cccc(c1CC)CC2=CC=C(C2=3)C=CC3C4=NN=C(C4)N
                    3D
 Schrodinger Suite 2021-1.
 25 28  0  0  1  0            999 V2000
  -23.5988  -20.7891   11.3962 C   0  0  0  0  0  0
  -23.1726  -19.6057   11.8256 C   0  0  0  0  0  0
  -24.9524  -20.6907   11.0592 C   0  0  0  0  0  0
  -24.2299  -22.6757   10.3985 C   0  0  0  0  0  0
  -23.1337  -22.0768   10.8935 C   0  0  0  0  0  0
  -24.3179  -18.6866   11.6915 C   0  0  0  0  0  0
  -25.3704  -19.3225   11.1872 C   0  0  0  0  0  0
  -25.4002  -21.7867   10.5032 C   0  0  0  0  0  0
  -21.8276  -19.1656   12.2110 C   0  0  0  0  0  0
  -20.8302  -19.9572   12.4094 N   0  0  0  0  0  0
  -19.9784  -17.9491   12.5599 C   0  0  0  0  0  0
  -19.0234  -16.9081   12.7178 N   0  0  0  0  0  0
  -21.4225  -17.7335   12.3153 C   0  0  0  0  0  0
  -19.6760  -19.1978   12.6224 N   0  0  0  0  0  0
  -19.3406  -15.9193   12.6361 H   0  0  0  0  0  0
  -18.0189  -17.1234   12.9050 H   0  0  0  0  0  0
  -21.7345  -22.3456   10.4292 C   0  0  0  0  0  0
  -21.2662  -24.1380    7.0429 C   0  0  0  0  0  0
  -21.5872  -23.3885    9.3421 C   0  0  0  0  0  0
  -21.2569  -24.6868    9.7737 C   0  0  0  0  0  0
  -21.6695  -23.1187    7.9312 C   0  0  0  0  0  0
  -20.8826  -25.6690    8.8633 C   0  0  0  0  0  0
  -20.8454  -25.3804    7.5064 C   0  0  0  0  0  0
  -21.9970  -21.7745    7.2702 C   0  0  0  0  0  0
  -23.4290  -21.2569    7.3801 C   0  0  0  0  0  0
  1  2  2  0  0  0
  1  3  1  0  0  0
  1  5  1  0  0  0
  2  9  1  0  0  0
  2  6  1  0  0  0
  3  7  1  0  0  0
  3  8  2  0  0  0
  4  5  2  0  0  0
  4  8  1  0  0  0
  5 17  1  0  0  0
  6  7  2  0  0  0
  9 10  2  0  0  0
  9 13  1  0  0  0
 10 14  1  0  0  0
 11 12  1  0  0  0
 11 13  1  0  0  0
 11 14  2  0  0  0
 12 15  1  0  0  0
 12 16  1  0  0  0
 17 19  1  0  0  0
 18 21  2  0  0  0
 18 23  1  0  0  0
 19 20  2  0  0  0
 19 21  1  0  0  0
 20 22  1  0  0  0
 21 24  1  0  0  0
 22 23  2  0  0  0
 24 25  1  0  0  0
M  END
> <s_m_entry_id>
899

> <s_m_entry_name>
10-myco-1_37_lig_gen_fit_add_gna.sdf.6

> <s_m_Source_Path>
C:\Users\maila\Downloads\mgr\myco-analysis

> <s_m_Source_File>
myco-10-var1-wzakresie.mae

> <i_m_Source_File_Index>
46

> <s_user_SMILES>
c1cccc(c1CC)CC2=CC=C(C2=3)C=CC3C4=NN=C(C4)N

> <minimizedAffinity>
-8.49968

> <minimizedRMSD>
0.43241

> <CNNscore>
0.6428315043

> <CNNaffinity>
6.5177969933

> <CNN_VS>
4.1898450851

> <CNNaffinity_variance>
0.2394829988

$$$$
C[C@@H]1C=CC=C1Cc2ncc(c23)c3-c4cc(N)[nH]n4
                    3D
 Schrodinger Suite 2021-1.
 22 25  0  0  1  0            999 V2000
  -23.4461  -19.0325   11.7152 C   0  0  0  0  0  0
  -23.8663  -21.1796   11.3289 C   0  0  0  0  0  0
  -24.7375  -19.0164   11.3520 C   0  0  0  0  0  0
  -22.9431  -20.2932   11.7027 C   0  0  0  0  0  0
  -22.1435  -19.2503   12.0610 C   0  0  0  0  0  0
  -24.9960  -20.3777   11.1112 N   0  0  0  0  0  0
  -19.7485  -19.5323   12.5630 N   0  0  0  0  0  0
  -20.8392  -18.7494   12.4405 C   0  0  0  0  0  0
  -19.1224  -17.4629   12.5503 C   0  0  0  0  0  0
  -20.4853  -17.4221   12.4252 C   0  0  0  0  0  0
  -18.2654  -16.3356   12.5251 N   0  0  0  0  0  0
  -18.6991  -18.7314   12.6405 N   0  0  0  0  0  0
  -17.2317  -16.4635   12.5977 H   0  0  0  0  0  0
  -18.6857  -15.3835   12.4465 H   0  0  0  0  0  0
  -17.7081  -19.0501   12.7141 H   0  0  0  0  0  0
  -23.7833  -22.6613   11.2008 C   0  0  0  0  0  0
  -22.7143  -23.0972   10.2304 C   0  0  0  0  0  0
  -21.2763  -24.4234    9.0954 C   0  0  0  0  0  0
  -22.1448  -24.2952   10.2484 C   0  0  0  0  0  0
  -22.2209  -22.3083    9.0487 C   0  0  2  0  0  0
  -23.3416  -21.8774    8.1072 C   0  0  0  0  0  0
  -21.3218  -23.3048    8.3924 C   0  0  0  0  0  0
  1  3  1  0  0  0
  1  4  1  0  0  0
  1  5  2  0  0  0
  2  4  2  0  0  0
  2 16  1  0  0  0
  2  6  1  0  0  0
  3  6  2  0  0  0
  4  5  1  0  0  0
  5  8  1  0  0  0
  7  8  2  0  0  0
  7 12  1  0  0  0
  8 10  1  0  0  0
  9 10  2  0  0  0
  9 11  1  0  0  0
  9 12  1  0  0  0
 11 13  1  0  0  0
 11 14  1  0  0  0
 12 15  1  0  0  0
 16 17  1  0  0  0
 17 19  2  0  0  0
 17 20  1  0  0  0
 18 19  1  0  0  0
 18 22  2  0  0  0
 20 21  1  0  0  0
 20 22  1  0  0  0
M  END
> <s_m_entry_id>
900

> <s_m_entry_name>
10-myco-1_37_lig_gen_fit_add_gna.sdf.7

> <s_m_Source_Path>
C:\Users\maila\Downloads\mgr\myco-analysis

> <s_m_Source_File>
myco-10-var1-wzakresie.mae

> <i_m_Source_File_Index>
47

> <s_user_SMILES>
C[C@@H]1C=CC=C1Cc2ncc(c23)c3-c4cc(N)[nH]n4

> <minimizedAffinity>
-8.70589

> <minimizedRMSD>
1.29004

> <CNNscore>
0.9409018159

> <CNNaffinity>
6.3951849937

> <CNN_VS>
6.0172410011

> <CNNaffinity_variance>
0.0758533329

$$$$
c1ccccc1CC2=CC=C(C2=3)C=C(C3)c4cc(N)[nH]n4
                    3D
 Schrodinger Suite 2021-1.
 24 27  0  0  1  0            999 V2000
  -23.3329   20.4649  -11.5075 C   0  0  0  0  0  0
  -25.1647   20.5330  -10.2889 C   0  0  0  0  0  0
  -21.8728   19.0161  -12.3122 C   0  0  0  0  0  0
  -22.9637   18.2723  -12.0971 C   0  0  0  0  0  0
  -23.9307   19.2038  -11.5728 C   0  0  0  0  0  0
  -24.1359   21.2967  -10.6547 C   0  0  0  0  0  0
  -25.0229   19.1681  -10.8397 C   0  0  0  0  0  0
  -22.0993   20.4303  -11.9396 C   0  0  0  0  0  0
  -18.7723   17.2589  -12.6092 C   0  0  0  0  0  0
  -19.4711   19.2954  -12.5105 N   0  0  0  0  0  0
  -20.1423   17.1597  -12.5205 C   0  0  0  0  0  0
  -17.8516   16.2061  -12.4253 N   0  0  0  0  0  0
  -18.4023   18.5379  -12.5931 N   0  0  0  0  0  0
  -20.5385   18.4861  -12.5035 C   0  0  0  0  0  0
  -18.0021   15.6127  -11.5921 H   0  0  0  0  0  0
  -16.8872   16.2957  -12.8082 H   0  0  0  0  0  0
  -17.4383   18.8888  -12.4827 H   0  0  0  0  0  0
  -23.9530   22.7402  -10.3271 C   0  0  0  0  0  0
  -22.8300   22.9461   -9.3481 C   0  0  0  0  0  0
  -20.6824   23.9295   -8.7788 C   0  0  0  0  0  0
  -22.9051   22.3900   -8.0602 C   0  0  0  0  0  0
  -20.7654   23.3762   -7.4980 C   0  0  0  0  0  0
  -21.7090   23.7156   -9.7026 C   0  0  0  0  0  0
  -21.8772   22.6090   -7.1383 C   0  0  0  0  0  0
  1  5  1  0  0  0
  1  6  1  0  0  0
  1  8  2  0  0  0
  2  6  2  0  0  0
  2  7  1  0  0  0
  3  4  2  0  0  0
  3 14  1  0  0  0
  3  8  1  0  0  0
  4  5  1  0  0  0
  5  7  2  0  0  0
  6 18  1  0  0  0
  9 11  2  0  0  0
  9 12  1  0  0  0
  9 13  1  0  0  0
 10 13  1  0  0  0
 10 14  2  0  0  0
 11 14  1  0  0  0
 12 15  1  0  0  0
 12 16  1  0  0  0
 13 17  1  0  0  0
 18 19  1  0  0  0
 19 21  2  0  0  0
 19 23  1  0  0  0
 20 22  1  0  0  0
 20 23  2  0  0  0
 21 24  1  0  0  0
 22 24  2  0  0  0
M  END
> <s_m_entry_id>
901

> <s_m_entry_name>
10-myco-1_38_lig_gen_fit_add_gna.sdf.2

> <s_m_Source_Path>
C:\Users\maila\Downloads\mgr\myco-analysis

> <s_m_Source_File>
myco-10-var1-wzakresie.mae

> <i_m_Source_File_Index>
48

> <s_user_SMILES>
c1ccccc1CC2=CC=C(C2=3)C=C(C3)c4cc(N)[nH]n4

> <minimizedAffinity>
-9.69743

> <minimizedRMSD>
0.67152

> <CNNscore>
0.918775022

> <CNNaffinity>
6.5729818344

> <CNN_VS>
6.0390915871

> <CNNaffinity_variance>
0.0650580674

$$$$
C1=CCC=C1Cn(cc2)c(c23)cc(cc3)-c4ccn[nH]4
                    3D
 Schrodinger Suite 2021-1.
 21 24  0  0  1  0            999 V2000
  -23.4279   21.0109  -11.2077 C   0  0  0  0  0  0
  -22.2578   20.4662  -11.7429 C   0  0  0  0  0  0
  -24.6002   18.9102  -11.4005 C   0  0  0  0  0  0
  -25.4912   21.0275  -10.4055 C   0  0  0  0  0  0
  -24.5508   20.2482  -11.0351 C   0  0  0  0  0  0
  -24.8915   22.2620  -10.2258 C   0  0  0  0  0  0
  -23.4300   18.3246  -11.9082 C   0  0  0  0  0  0
  -22.2395   19.0799  -12.0463 C   0  0  0  0  0  0
  -23.6289   22.2520  -10.7146 N   0  0  0  0  0  0
  -18.8067   18.1162  -12.5754 N   0  0  0  0  0  0
  -19.3930   16.9162  -12.7218 C   0  0  0  0  0  0
  -20.9575   18.3926  -12.3338 C   0  0  0  0  0  0
  -20.7582   17.0401  -12.5496 C   0  0  0  0  0  0
  -19.7579   18.9996  -12.3319 N   0  0  0  0  0  0
  -19.5732   20.0028  -12.1274 H   0  0  0  0  0  0
  -22.6534   23.3297  -10.5531 C   0  0  0  0  0  0
  -21.5912   22.9076   -7.0249 C   0  0  0  0  0  0
  -20.7336   23.7315   -9.0054 C   0  0  0  0  0  0
  -22.4859   22.7283   -7.9818 C   0  0  0  0  0  0
  -21.9388   23.2318   -9.2344 C   0  0  0  0  0  0
  -20.3639   23.5613   -7.5693 C   0  0  0  0  0  0
  1  2  2  0  0  0
  1  5  1  0  0  0
  1  9  1  0  0  0
  2  8  1  0  0  0
  3  5  2  0  0  0
  3  7  1  0  0  0
  4  5  1  0  0  0
  4  6  2  0  0  0
  6  9  1  0  0  0
  7  8  2  0  0  0
  8 12  1  0  0  0
  9 16  1  0  0  0
 10 11  2  0  0  0
 10 14  1  0  0  0
 11 13  1  0  0  0
 12 13  2  0  0  0
 12 14  1  0  0  0
 14 15  1  0  0  0
 16 20  1  0  0  0
 17 19  2  0  0  0
 17 21  1  0  0  0
 18 20  2  0  0  0
 18 21  1  0  0  0
 19 20  1  0  0  0
M  END
> <s_m_entry_id>
902

> <s_m_entry_name>
10-myco-1_38_lig_gen_fit_add_gna.sdf.3

> <s_m_Source_Path>
C:\Users\maila\Downloads\mgr\myco-analysis

> <s_m_Source_File>
myco-10-var1-wzakresie.mae

> <i_m_Source_File_Index>
49

> <s_user_SMILES>
C1=CCC=C1Cn(cc2)c(c23)cc(cc3)-c4ccn[nH]4

> <minimizedAffinity>
-8.64091

> <minimizedRMSD>
0.26215

> <CNNscore>
0.9600803256

> <CNNaffinity>
6.4955954552

> <CNN_VS>
6.2362933159

> <CNNaffinity_variance>
0.0746709183

$$$$
c1ccccc1CC2=Nc(c23)ccc(c3)-c4cc(N)[nH]n4
                    3D
 Schrodinger Suite 2021-1.
 24 27  0  0  1  0            999 V2000
  -24.0767   18.3564  -11.7201 C   0  0  0  0  0  0
  -23.4242   20.5689  -11.3777 C   0  0  0  0  0  0
  -24.3717   19.6034  -11.3016 C   0  0  0  0  0  0
  -22.1213   20.3685  -11.8989 C   0  0  0  0  0  0
  -24.3380   21.4632  -10.7066 C   0  0  0  0  0  0
  -22.8479   18.1391  -12.1894 C   0  0  0  0  0  0
  -21.7983   19.0251  -12.3167 C   0  0  0  0  0  0
  -25.2279   20.5053  -10.6075 N   0  0  0  0  0  0
  -18.5741   17.4938  -12.7051 C   0  0  0  0  0  0
  -20.4106   18.5937  -12.4175 C   0  0  0  0  0  0
  -19.9419   17.3338  -12.7477 C   0  0  0  0  0  0
  -17.6132   16.6057  -13.2495 N   0  0  0  0  0  0
  -19.3843   19.4250  -12.1696 N   0  0  0  0  0  0
  -18.2737   18.7394  -12.3356 N   0  0  0  0  0  0
  -16.6022   16.7410  -13.0365 H   0  0  0  0  0  0
  -17.8614   16.1188  -14.1287 H   0  0  0  0  0  0
  -17.3250   19.1333  -12.2213 H   0  0  0  0  0  0
  -24.2591   22.8853  -10.3118 C   0  0  0  0  0  0
  -21.8639   22.6927   -7.3563 C   0  0  0  0  0  0
  -23.0605   23.1123   -9.4296 C   0  0  0  0  0  0
  -22.9779   22.4856   -8.1751 C   0  0  0  0  0  0
  -21.9991   23.9242   -9.8646 C   0  0  0  0  0  0
  -20.8858   24.1268   -9.0441 C   0  0  0  0  0  0
  -20.8186   23.5130   -7.7903 C   0  0  0  0  0  0
  1  3  2  0  0  0
  1  6  1  0  0  0
  2  3  1  0  0  0
  2  4  2  0  0  0
  2  5  1  0  0  0
  3  8  1  0  0  0
  4  7  1  0  0  0
  5 18  1  0  0  0
  5  8  2  0  0  0
  6  7  2  0  0  0
  7 10  1  0  0  0
  9 11  2  0  0  0
  9 12  1  0  0  0
  9 14  1  0  0  0
 10 11  1  0  0  0
 10 13  2  0  0  0
 12 15  1  0  0  0
 12 16  1  0  0  0
 13 14  1  0  0  0
 14 17  1  0  0  0
 18 20  1  0  0  0
 19 21  2  0  0  0
 19 24  1  0  0  0
 20 21  1  0  0  0
 20 22  2  0  0  0
 22 23  1  0  0  0
 23 24  2  0  0  0
M  END
> <s_m_entry_id>
903

> <s_m_entry_name>
10-myco-1_38_lig_gen_fit_add_gna.sdf.4

> <s_m_Source_Path>
C:\Users\maila\Downloads\mgr\myco-analysis

> <s_m_Source_File>
myco-10-var1-wzakresie.mae

> <i_m_Source_File_Index>
50

> <s_user_SMILES>
c1ccccc1CC2=Nc(c23)ccc(c3)-c4cc(N)[nH]n4

> <minimizedAffinity>
-8.74341

> <minimizedRMSD>
0.66258

> <CNNscore>
0.8921101689

> <CNNaffinity>
6.3470511436

> <CNN_VS>
5.6622686386

> <CNNaffinity_variance>
0.0688806474

$$$$
c1ccccc1CC=2N=CC(C23)=CC=C(C3)C4=NN=C(C4)N
                    3D
 Schrodinger Suite 2021-1.
 24 27  0  0  1  0            999 V2000
  -22.0815   19.2485  -12.1072 C   0  0  0  0  0  0
  -24.5127   20.0755  -10.9556 C   0  0  0  0  0  0
  -23.4827   21.0421  -11.1312 C   0  0  0  0  0  0
  -23.1267   18.3933  -12.0035 C   0  0  0  0  0  0
  -23.9154   22.1787  -10.6128 C   0  0  0  0  0  0
  -25.5444   20.7675  -10.2108 C   0  0  0  0  0  0
  -24.4253   18.8367  -11.4282 C   0  0  0  0  0  0
  -25.2020   22.0027  -10.0078 N   0  0  0  0  0  0
  -22.2573   20.7562  -11.9149 C   0  0  0  0  0  0
  -20.7049   18.7584  -12.2877 C   0  0  0  0  0  0
  -19.7190   19.5849  -12.2865 N   0  0  0  0  0  0
  -18.7789   17.6749  -12.6967 C   0  0  0  0  0  0
  -20.2191   17.3493  -12.4490 C   0  0  0  0  0  0
  -17.8051   16.7893  -13.2176 N   0  0  0  0  0  0
  -18.5332   18.9239  -12.5630 N   0  0  0  0  0  0
  -16.8839   17.1491  -13.5397 H   0  0  0  0  0  0
  -18.0817   15.8459  -13.5093 H   0  0  0  0  0  0
  -23.1599   23.4733  -10.6198 C   0  0  0  0  0  0
  -22.2118   23.6150   -9.4507 C   0  0  0  0  0  0
  -20.2775   24.7146   -8.4636 C   0  0  0  0  0  0
  -21.5394   23.1139   -7.1629 C   0  0  0  0  0  0
  -22.4142   22.9268   -8.2371 C   0  0  0  0  0  0
  -21.1450   24.5258   -9.5436 C   0  0  0  0  0  0
  -20.4710   24.0049   -7.2769 C   0  0  0  0  0  0
  1 10  1  0  0  0
  1  4  2  0  0  0
  1  9  1  0  0  0
  2  3  1  0  0  0
  2  6  1  0  0  0
  2  7  2  0  0  0
  3  5  2  0  0  0
  3  9  1  0  0  0
  4  7  1  0  0  0
  5 18  1  0  0  0
  5  8  1  0  0  0
  6  8  2  0  0  0
 10 11  2  0  0  0
 10 13  1  0  0  0
 11 15  1  0  0  0
 12 13  1  0  0  0
 12 14  1  0  0  0
 12 15  2  0  0  0
 14 16  1  0  0  0
 14 17  1  0  0  0
 18 19  1  0  0  0
 19 22  2  0  0  0
 19 23  1  0  0  0
 20 23  2  0  0  0
 20 24  1  0  0  0
 21 22  1  0  0  0
 21 24  2  0  0  0
M  END
> <s_m_entry_id>
904

> <s_m_entry_name>
10-myco-1_38_lig_gen_fit_add_gna.sdf.6

> <s_m_Source_Path>
C:\Users\maila\Downloads\mgr\myco-analysis

> <s_m_Source_File>
myco-10-var1-wzakresie.mae

> <i_m_Source_File_Index>
51

> <s_user_SMILES>
c1ccccc1CC=2N=CC(C23)=CC=C(C3)C4=NN=C(C4)N

> <minimizedAffinity>
-9.776

> <minimizedRMSD>
0.28139

> <CNNscore>
0.9392675161

> <CNNaffinity>
6.6889977455

> <CNN_VS>
6.2827582359

> <CNNaffinity_variance>
0.2014908046

$$$$
c1ccccc1CC=2C=N[C@H](C23)C=CC(=C3)C4=NN=C(C4)N
                    3D
 Schrodinger Suite 2021-1.
 24 27  0  0  1  0            999 V2000
  -21.8989   19.2561  -12.0556 C   0  0  0  0  0  0
  -24.2569   18.7450  -11.5205 C   0  0  0  0  0  0
  -23.2671   20.8991  -10.9593 C   0  0  0  0  0  0
  -23.7794   22.0954  -10.7846 C   0  0  0  0  0  0
  -24.2357   19.8691  -10.5252 C   0  0  1  0  0  0
  -22.0322   20.5357  -11.6454 C   0  0  0  0  0  0
  -25.4732   20.6224  -10.3900 N   0  0  0  0  0  0
  -25.1760   21.8835  -10.4350 C   0  0  0  0  0  0
  -23.0976   18.3717  -12.1026 C   0  0  0  0  0  0
  -18.6771   17.5463  -12.7109 C   0  0  0  0  0  0
  -18.3861   18.7936  -12.7063 N   0  0  0  0  0  0
  -17.6799   16.5585  -12.8873 N   0  0  0  0  0  0
  -20.1125   17.2949  -12.3716 C   0  0  0  0  0  0
  -20.5507   18.7274  -12.3280 C   0  0  0  0  0  0
  -19.5407   19.5160  -12.4439 N   0  0  0  0  0  0
  -17.4850   15.9481  -12.0750 H   0  0  0  0  0  0
  -16.9005   16.7298  -13.5598 H   0  0  0  0  0  0
  -23.0929   23.4054  -11.0294 C   0  0  0  0  0  0
  -21.9159   23.9621   -7.4203 C   0  0  0  0  0  0
  -22.6280   23.4638   -8.5154 C   0  0  0  0  0  0
  -22.3233   23.8972   -9.8226 C   0  0  0  0  0  0
  -20.9133   24.9144   -7.6110 C   0  0  0  0  0  0
  -21.3277   24.8745   -9.9969 C   0  0  0  0  0  0
  -20.6241   25.3749   -8.8972 C   0  0  0  0  0  0
  1 14  1  0  0  0
  1  6  2  0  0  0
  1  9  1  0  0  0
  2  5  1  0  0  0
  2  9  2  0  0  0
  3  4  2  0  0  0
  3  5  1  0  0  0
  3  6  1  0  0  0
  4 18  1  0  0  0
  4  8  1  0  0  0
  5  7  1  0  0  0
  7  8  2  0  0  0
 10 11  2  0  0  0
 10 12  1  0  0  0
 10 13  1  0  0  0
 11 15  1  0  0  0
 12 16  1  0  0  0
 12 17  1  0  0  0
 13 14  1  0  0  0
 14 15  2  0  0  0
 18 21  1  0  0  0
 19 20  2  0  0  0
 19 22  1  0  0  0
 20 21  1  0  0  0
 21 23  2  0  0  0
 22 24  2  0  0  0
 23 24  1  0  0  0
M  END
> <s_m_entry_id>
905

> <s_m_entry_name>
10-myco-1_38_lig_gen_fit_add_gna.sdf.7

> <s_m_Source_Path>
C:\Users\maila\Downloads\mgr\myco-analysis

> <s_m_Source_File>
myco-10-var1-wzakresie.mae

> <i_m_Source_File_Index>
52

> <s_user_SMILES>
c1ccccc1CC=2C=N[C@H](C23)C=CC(=C3)C4=NN=C(C4)N

> <minimizedAffinity>
-9.54651

> <minimizedRMSD>
0.37594

> <CNNscore>
0.9184836745

> <CNNaffinity>
6.6856088638

> <CNN_VS>
6.1406226158

> <CNNaffinity_variance>
0.217378214

$$$$
C1C=CC=C1Cc2nccc(c23)ccc(c3)C4=NN=C(C4)N
                    3D
 Schrodinger Suite 2021-1.
 24 27  0  0  1  0            999 V2000
  -22.8306   18.1660  -12.0649 C   0  0  0  0  0  0
  -23.0925   20.8416  -11.1890 C   0  0  0  0  0  0
  -21.7293   19.0139  -12.0841 C   0  0  0  0  0  0
  -24.1967   19.9588  -11.1765 C   0  0  0  0  0  0
  -25.5657   21.6976  -10.2446 C   0  0  0  0  0  0
  -25.4220   20.3897  -10.6869 C   0  0  0  0  0  0
  -21.8802   20.3681  -11.7188 C   0  0  0  0  0  0
  -24.4984   22.5303  -10.2224 N   0  0  0  0  0  0
  -23.2621   22.1486  -10.6457 C   0  0  0  0  0  0
  -24.0675   18.6473  -11.6473 C   0  0  0  0  0  0
  -18.5058   17.4298  -12.9785 C   0  0  0  0  0  0
  -18.2734   18.6833  -12.9934 N   0  0  0  0  0  0
  -20.4009   18.5159  -12.4572 C   0  0  0  0  0  0
  -17.4444   16.5129  -13.0331 N   0  0  0  0  0  0
  -19.9195   17.1079  -12.5950 C   0  0  0  0  0  0
  -19.4482   19.3369  -12.6769 N   0  0  0  0  0  0
  -17.4130   15.8346  -12.2580 H   0  0  0  0  0  0
  -16.5670   16.7612  -13.5397 H   0  0  0  0  0  0
  -22.1359   23.1347  -10.4184 C   0  0  0  0  0  0
  -21.9784   23.4813   -8.9631 C   0  0  0  0  0  0
  -22.1302   22.6363   -7.9493 C   0  0  0  0  0  0
  -21.7475   23.3052   -6.7214 C   0  0  0  0  0  0
  -21.3477   24.5326   -7.0076 C   0  0  0  0  0  0
  -21.4369   24.7856   -8.4765 C   0  0  0  0  0  0
  1  3  2  0  0  0
  1 10  1  0  0  0
  2  4  1  0  0  0
  2  7  2  0  0  0
  2  9  1  0  0  0
  3 13  1  0  0  0
  3  7  1  0  0  0
  4  6  1  0  0  0
  4 10  2  0  0  0
  5  6  2  0  0  0
  5  8  1  0  0  0
  8  9  2  0  0  0
  9 19  1  0  0  0
 11 12  2  0  0  0
 11 14  1  0  0  0
 11 15  1  0  0  0
 12 16  1  0  0  0
 13 15  1  0  0  0
 13 16  2  0  0  0
 14 17  1  0  0  0
 14 18  1  0  0  0
 19 20  1  0  0  0
 20 21  2  0  0  0
 20 24  1  0  0  0
 21 22  1  0  0  0
 22 23  2  0  0  0
 23 24  1  0  0  0
M  END
> <s_m_entry_id>
906

> <s_m_entry_name>
10-myco-1_38_lig_gen_fit_add_gna.sdf.8

> <s_m_Source_Path>
C:\Users\maila\Downloads\mgr\myco-analysis

> <s_m_Source_File>
myco-10-var1-wzakresie.mae

> <i_m_Source_File_Index>
53

> <s_user_SMILES>
C1C=CC=C1Cc2nccc(c23)ccc(c3)C4=NN=C(C4)N

> <minimizedAffinity>
-9.4544

> <minimizedRMSD>
0.34169

> <CNNscore>
0.9717493057

> <CNNaffinity>
6.9438042641

> <CNN_VS>
6.747636795

> <CNNaffinity_variance>
0.0656398386

$$$$
c1ccccc1CC2=CC=C(C2=3)C=C(C3)c4cccnn4
                    3D
 Schrodinger Suite 2021-1.
 21 24  0  0  1  0            999 V2000
  -22.0480   19.0081  -12.1517 C   0  0  0  0  0  0
  -23.1546   20.7955  -11.4510 C   0  0  0  0  0  0
  -23.2912   18.5477  -11.8944 C   0  0  0  0  0  0
  -24.0198   19.7064  -11.4250 C   0  0  0  0  0  0
  -23.8152   21.9180  -10.8520 C   0  0  0  0  0  0
  -25.0315   21.4728  -10.4889 C   0  0  0  0  0  0
  -21.9587   20.4570  -11.8596 C   0  0  0  0  0  0
  -25.1592   20.0312  -10.8412 C   0  0  0  0  0  0
  -18.5568   16.8164  -13.0503 C   0  0  0  0  0  0
  -19.6804   18.8346  -12.6837 N   0  0  0  0  0  0
  -20.8635   18.1994  -12.4658 C   0  0  0  0  0  0
  -20.9056   16.8050  -12.5304 C   0  0  0  0  0  0
  -19.7404   16.1080  -12.8236 C   0  0  0  0  0  0
  -18.5637   18.1680  -12.9691 N   0  0  0  0  0  0
  -23.2047   23.2659  -10.6260 C   0  0  0  0  0  0
  -22.3108   23.3266   -9.4085 C   0  0  0  0  0  0
  -21.8268   22.8222   -7.0748 C   0  0  0  0  0  0
  -20.6475   23.5647   -7.1542 C   0  0  0  0  0  0
  -22.6607   22.7093   -8.1909 C   0  0  0  0  0  0
  -21.1296   24.0865   -9.4679 C   0  0  0  0  0  0
  -20.3004   24.1988   -8.3484 C   0  0  0  0  0  0
  1  3  2  0  0  0
  1 11  1  0  0  0
  1  7  1  0  0  0
  2  4  1  0  0  0
  2  5  1  0  0  0
  2  7  2  0  0  0
  3  4  1  0  0  0
  4  8  2  0  0  0
  5 15  1  0  0  0
  5  6  2  0  0  0
  6  8  1  0  0  0
  9 13  2  0  0  0
  9 14  1  0  0  0
 10 11  1  0  0  0
 10 14  2  0  0  0
 11 12  2  0  0  0
 12 13  1  0  0  0
 15 16  1  0  0  0
 16 19  2  0  0  0
 16 20  1  0  0  0
 17 18  2  0  0  0
 17 19  1  0  0  0
 18 21  1  0  0  0
 20 21  2  0  0  0
M  END
> <s_m_entry_id>
907

> <s_m_entry_name>
10-myco-1_38_lig_gen_fit_add_gna.sdf.10

> <s_m_Source_Path>
C:\Users\maila\Downloads\mgr\myco-analysis

> <s_m_Source_File>
myco-10-var1-wzakresie.mae

> <i_m_Source_File_Index>
54

> <s_user_SMILES>
c1ccccc1CC2=CC=C(C2=3)C=C(C3)c4cccnn4

> <minimizedAffinity>
-9.45

> <minimizedRMSD>
0.54238

> <CNNscore>
0.9072909355

> <CNNaffinity>
6.401345253

> <CNN_VS>
5.807882309

> <CNNaffinity_variance>
0.1821401715

$$$$
C1C=CC=C1CC=2N=CC(C23)=CC(=C3)C4=NN=C(C4)N
                    3D
 Schrodinger Suite 2021-1.
 22 25  0  0  1  0            999 V2000
  -22.0928   19.4028  -12.2013 C   0  0  0  0  0  0
  -24.3583   21.5384  -10.7491 C   0  0  0  0  0  0
  -25.1923   19.5240  -10.3866 C   0  0  0  0  0  0
  -22.3817   20.7095  -12.1157 C   0  0  0  0  0  0
  -25.3012   20.7594   -9.9912 N   0  0  0  0  0  0
  -23.2364   18.5911  -11.7381 C   0  0  0  0  0  0
  -24.1916   19.4496  -11.4331 C   0  0  0  0  0  0
  -23.7337   20.7608  -11.6122 C   0  0  0  0  0  0
  -20.7456   18.8807  -12.4330 C   0  0  0  0  0  0
  -18.8582   17.6738  -12.5394 C   0  0  0  0  0  0
  -17.8534   16.6810  -12.4159 N   0  0  0  0  0  0
  -19.7431   19.6591  -12.6485 N   0  0  0  0  0  0
  -20.3133   17.4578  -12.2975 C   0  0  0  0  0  0
  -18.5726   18.9106  -12.7319 N   0  0  0  0  0  0
  -18.0638   15.8243  -11.8740 H   0  0  0  0  0  0
  -16.8669   16.8931  -12.6776 H   0  0  0  0  0  0
  -23.9553   22.9333  -10.3962 C   0  0  0  0  0  0
  -22.8272   22.9619   -9.4053 C   0  0  0  0  0  0
  -22.8395   22.3648   -8.2216 C   0  0  0  0  0  0
  -21.6333   22.7297   -7.5041 C   0  0  0  0  0  0
  -20.9056   23.5324   -8.2627 C   0  0  0  0  0  0
  -21.5741   23.7598   -9.5773 C   0  0  0  0  0  0
  1  9  1  0  0  0
  1  4  2  0  0  0
  1  6  1  0  0  0
  2 17  1  0  0  0
  2  5  1  0  0  0
  2  8  2  0  0  0
  3  5  2  0  0  0
  3  7  1  0  0  0
  4  8  1  0  0  0
  6  7  2  0  0  0
  7  8  1  0  0  0
  9 12  2  0  0  0
  9 13  1  0  0  0
 10 11  1  0  0  0
 10 13  1  0  0  0
 10 14  2  0  0  0
 11 15  1  0  0  0
 11 16  1  0  0  0
 12 14  1  0  0  0
 17 18  1  0  0  0
 18 19  2  0  0  0
 18 22  1  0  0  0
 19 20  1  0  0  0
 20 21  2  0  0  0
 21 22  1  0  0  0
M  END
> <s_m_entry_id>
908

> <s_m_entry_name>
10-myco-1_39_lig_gen_fit_add_gna.sdf.3

> <s_m_Source_Path>
C:\Users\maila\Downloads\mgr\myco-analysis

> <s_m_Source_File>
myco-10-var1-wzakresie.mae

> <i_m_Source_File_Index>
55

> <s_user_SMILES>
C1C=CC=C1CC=2N=CC(C23)=CC(=C3)C4=NN=C(C4)N

> <minimizedAffinity>
-8.43514

> <minimizedRMSD>
0.7038

> <CNNscore>
0.9197683334

> <CNNaffinity>
6.7487668991

> <CNN_VS>
6.2073020935

> <CNNaffinity_variance>
0.1271101087

$$$$
C1=CCC=C1C=2CC=c(c23)ccc(n3)C4=CC(=O)N=N4
                    3D
 Schrodinger Suite 2021-1.
 20 23  0  0  1  0            999 V2000
  -23.6297   22.2286  -10.6969 C   0  0  0  0  0  0
  -23.3650   18.3974  -12.0202 C   0  0  0  0  0  0
  -24.5629   20.2581  -11.1039 C   0  0  0  0  0  0
  -22.2032   19.2046  -12.0744 C   0  0  0  0  0  0
  -23.4306   21.0188  -11.1934 C   0  0  0  0  0  0
  -25.5387   20.9395  -10.5308 C   0  0  0  0  0  0
  -25.0434   22.3197  -10.2192 C   0  0  0  0  0  0
  -24.5632   18.9313  -11.5216 C   0  0  0  0  0  0
  -22.2639   20.5071  -11.6587 N   0  0  0  0  0  0
  -19.1206   17.4268  -12.7804 C   0  0  0  0  0  0
  -19.7780   19.4836  -12.7680 N   0  0  0  0  0  0
  -20.8853   18.6473  -12.4259 C   0  0  0  0  0  0
  -20.5186   17.3670  -12.4068 C   0  0  0  0  0  0
  -18.3399   16.4536  -12.9203 O   0  0  0  0  0  0
  -18.7475   18.7736  -12.9793 N   0  0  0  0  0  0
  -21.0900   24.2690   -9.0599 C   0  0  0  0  0  0
  -22.5882   23.1984  -10.3552 C   0  0  0  0  0  0
  -21.7885   23.1507   -9.1485 C   0  0  0  0  0  0
  -22.4019   24.3584  -10.9601 C   0  0  0  0  0  0
  -21.3850   25.1609  -10.2212 C   0  0  0  0  0  0
  1 17  1  0  0  0
  1  5  2  0  0  0
  1  7  1  0  0  0
  2  4  1  0  0  0
  2  8  2  0  0  0
  3  5  1  0  0  0
  3  6  2  0  0  0
  3  8  1  0  0  0
  4 12  1  0  0  0
  4  9  2  0  0  0
  5  9  1  0  0  0
  6  7  1  0  0  0
 10 13  1  0  0  0
 10 14  2  0  0  0
 10 15  1  0  0  0
 11 12  1  0  0  0
 11 15  2  0  0  0
 12 13  2  0  0  0
 16 18  2  0  0  0
 16 20  1  0  0  0
 17 18  1  0  0  0
 17 19  2  0  0  0
 19 20  1  0  0  0
M  END
> <s_m_entry_id>
909

> <s_m_entry_name>
10-myco-1_39_lig_gen_fit_add_gna.sdf.4

> <s_m_Source_Path>
C:\Users\maila\Downloads\mgr\myco-analysis

> <s_m_Source_File>
myco-10-var1-wzakresie.mae

> <i_m_Source_File_Index>
56

> <s_user_SMILES>
C1=CCC=C1C=2CC=c(c23)ccc(n3)C4=CC(=O)N=N4

> <minimizedAffinity>
-8.58346

> <minimizedRMSD>
0.27928

> <CNNscore>
0.9096929431

> <CNNaffinity>
6.5114502907

> <CNN_VS>
5.9234204292

> <CNNaffinity_variance>
0.0972240195

$$$$
C1C=CC=C1CC2=CC=C(C2=3)C=C(C3)c4cc(N)[nH]n4
                    3D
 Schrodinger Suite 2021-1.
 23 26  0  0  1  0            999 V2000
  -22.8815   18.3367  -12.0350 C   0  0  0  0  0  0
  -25.0558   19.3834  -11.0879 C   0  0  0  0  0  0
  -21.7657   19.0369  -12.2508 C   0  0  0  0  0  0
  -21.9899   20.4838  -12.0206 C   0  0  0  0  0  0
  -23.8659   19.3210  -11.6519 C   0  0  0  0  0  0
  -23.2521   20.5737  -11.6665 C   0  0  0  0  0  0
  -24.1482   21.5115  -11.0393 C   0  0  0  0  0  0
  -25.2387   20.8055  -10.7094 C   0  0  0  0  0  0
  -18.7092   17.2156  -12.7328 C   0  0  0  0  0  0
  -19.4410   19.2242  -12.9662 N   0  0  0  0  0  0
  -20.0467   17.1554  -12.3976 C   0  0  0  0  0  0
  -18.3773   18.4571  -13.0883 N   0  0  0  0  0  0
  -20.4647   18.4642  -12.5651 C   0  0  0  0  0  0
  -17.7529   16.1945  -12.5244 N   0  0  0  0  0  0
  -17.4317   18.7938  -13.3676 H   0  0  0  0  0  0
  -17.9859   15.4372  -11.8597 H   0  0  0  0  0  0
  -16.7762   16.3033  -12.8743 H   0  0  0  0  0  0
  -23.8741   22.9398  -10.6998 C   0  0  0  0  0  0
  -22.8430   23.0492   -9.6139 C   0  0  0  0  0  0
  -21.7735   22.8335   -7.6385 C   0  0  0  0  0  0
  -22.9227   22.4491   -8.4345 C   0  0  0  0  0  0
  -21.6055   23.8856   -9.6957 C   0  0  0  0  0  0
  -21.0113   23.6508   -8.3467 C   0  0  0  0  0  0
  1  3  2  0  0  0
  1  5  1  0  0  0
  2  5  2  0  0  0
  2  8  1  0  0  0
  3  4  1  0  0  0
  3 13  1  0  0  0
  4  6  2  0  0  0
  5  6  1  0  0  0
  6  7  1  0  0  0
  7 18  1  0  0  0
  7  8  2  0  0  0
  9 11  2  0  0  0
  9 12  1  0  0  0
  9 14  1  0  0  0
 10 12  1  0  0  0
 10 13  2  0  0  0
 11 13  1  0  0  0
 12 15  1  0  0  0
 14 16  1  0  0  0
 14 17  1  0  0  0
 18 19  1  0  0  0
 19 21  2  0  0  0
 19 22  1  0  0  0
 20 21  1  0  0  0
 20 23  2  0  0  0
 22 23  1  0  0  0
M  END
> <s_m_entry_id>
910

> <s_m_entry_name>
10-myco-1_39_lig_gen_fit_add_gna.sdf.5

> <s_m_Source_Path>
C:\Users\maila\Downloads\mgr\myco-analysis

> <s_m_Source_File>
myco-10-var1-wzakresie.mae

> <i_m_Source_File_Index>
57

> <s_user_SMILES>
C1C=CC=C1CC2=CC=C(C2=3)C=C(C3)c4cc(N)[nH]n4

> <minimizedAffinity>
-9.26831

> <minimizedRMSD>
0.62945

> <CNNscore>
0.9090740681

> <CNNaffinity>
6.766541481

> <CNN_VS>
6.1512875557

> <CNNaffinity_variance>
0.0870242193

$$$$
c1ccccc1Cc2nccc(c2=3)=CC3c4cc(N)n[nH]4
                    3D
 Schrodinger Suite 2021-1.
 24 27  0  0  1  0            999 V2000
  -23.5100   20.4943  -11.2922 C   0  0  0  0  0  0
  -23.6990   18.6291  -11.7747 C   0  0  0  0  0  0
  -24.4756   19.5240  -11.1997 C   0  0  0  0  0  0
  -25.9661   21.0319  -10.1891 C   0  0  0  0  0  0
  -23.7632   21.7902  -10.8399 C   0  0  0  0  0  0
  -22.6466   19.6145  -11.8181 C   0  0  0  0  0  0
  -25.7232   19.7203  -10.6517 C   0  0  0  0  0  0
  -25.0069   22.0143  -10.3017 N   0  0  0  0  0  0
  -21.2365   19.4946  -12.2159 C   0  0  0  0  0  0
  -19.3382   18.6295  -12.8064 C   0  0  0  0  0  0
  -19.0759   19.7735  -12.1633 N   0  0  0  0  0  0
  -18.3276   17.7677  -13.3104 N   0  0  0  0  0  0
  -20.6955   18.3915  -12.8472 C   0  0  0  0  0  0
  -20.2359   20.2955  -11.8044 N   0  0  0  0  0  0
  -18.5971   16.8712  -13.7550 H   0  0  0  0  0  0
  -17.3186   18.0206  -13.2277 H   0  0  0  0  0  0
  -20.3116   21.1445  -11.2109 H   0  0  0  0  0  0
  -22.7865   22.9190  -10.9301 C   0  0  0  0  0  0
  -22.2612   23.3683   -9.5848 C   0  0  0  0  0  0
  -22.3408   22.5530   -8.4371 C   0  0  0  0  0  0
  -21.8094   22.9903   -7.2204 C   0  0  0  0  0  0
  -21.6060   24.6084   -9.4919 C   0  0  0  0  0  0
  -21.1802   24.2338   -7.1376 C   0  0  0  0  0  0
  -21.0736   25.0395   -8.2734 C   0  0  0  0  0  0
  1  3  1  0  0  0
  1  5  1  0  0  0
  1  6  2  0  0  0
  2  3  2  0  0  0
  2  6  1  0  0  0
  3  7  1  0  0  0
  4  7  2  0  0  0
  4  8  1  0  0  0
  5 18  1  0  0  0
  5  8  2  0  0  0
  6  9  1  0  0  0
  9 13  2  0  0  0
  9 14  1  0  0  0
 10 11  2  0  0  0
 10 12  1  0  0  0
 10 13  1  0  0  0
 11 14  1  0  0  0
 12 15  1  0  0  0
 12 16  1  0  0  0
 14 17  1  0  0  0
 18 19  1  0  0  0
 19 20  2  0  0  0
 19 22  1  0  0  0
 20 21  1  0  0  0
 21 23  2  0  0  0
 22 24  2  0  0  0
 23 24  1  0  0  0
M  END
> <s_m_entry_id>
911

> <s_m_entry_name>
10-myco-1_39_lig_gen_fit_add_gna.sdf.7

> <s_m_Source_Path>
C:\Users\maila\Downloads\mgr\myco-analysis

> <s_m_Source_File>
myco-10-var1-wzakresie.mae

> <i_m_Source_File_Index>
58

> <s_user_SMILES>
c1ccccc1Cc2nccc(c2=3)=CC3c4cc(N)n[nH]4

> <minimizedAffinity>
-8.71793

> <minimizedRMSD>
0.40462

> <CNNscore>
0.9351087809

> <CNNaffinity>
6.3715262413

> <CNN_VS>
5.9580702782

> <CNNaffinity_variance>
0.3047107458

$$$$
[nH]1cc(C)cc1CC2CC=C(C=23)C=C3c4cc(N)[nH]n4
                    3D
 Schrodinger Suite 2021-1.
 24 27  0  0  1  0            999 V2000
  -23.3800   21.3325  -11.2730 C   0  0  0  0  0  0
  -22.2750   18.9806  -12.0486 C   0  0  0  0  0  0
  -23.3524   18.1700  -12.0298 C   0  0  0  0  0  0
  -23.1008   20.1036  -11.6200 C   0  0  0  0  0  0
  -24.1905   19.2739  -11.5771 C   0  0  0  0  0  0
  -25.2856   19.8721  -11.1838 C   0  0  0  0  0  0
  -24.8781   21.3319  -10.9660 C   0  0  0  0  0  0
  -18.9059   17.9250  -12.6307 C   0  0  0  0  0  0
  -20.2442   17.6169  -12.6681 C   0  0  0  0  0  0
  -19.9242   19.7626  -12.1016 N   0  0  0  0  0  0
  -17.8397   17.0092  -12.8465 N   0  0  0  0  0  0
  -18.7368   19.2143  -12.2985 N   0  0  0  0  0  0
  -20.8512   18.8068  -12.3213 C   0  0  0  0  0  0
  -16.8501   17.3332  -12.7727 H   0  0  0  0  0  0
  -18.0467   16.0103  -13.0696 H   0  0  0  0  0  0
  -17.8267   19.7111  -12.1782 H   0  0  0  0  0  0
  -22.4380   22.4892  -11.2369 C   0  0  0  0  0  0
  -22.2155   22.9844   -9.8402 C   0  0  0  0  0  0
  -21.3765   24.1101   -8.1426 C   0  0  0  0  0  0
  -21.4695   24.1017   -9.5191 C   0  0  0  0  0  0
  -22.0406   22.9902   -7.6817 C   0  0  0  0  0  0
  -20.5431   25.0411   -7.3274 C   0  0  0  0  0  0
  -22.5503   22.3067   -8.7224 N   0  0  0  0  0  0
  -23.0638   21.3990   -8.6682 H   0  0  0  0  0  0
  1  4  2  0  0  0
  1 17  1  0  0  0
  1  7  1  0  0  0
  2  3  2  0  0  0
  2  4  1  0  0  0
  2 13  1  0  0  0
  3  5  1  0  0  0
  4  5  1  0  0  0
  5  6  2  0  0  0
  6  7  1  0  0  0
  8  9  2  0  0  0
  8 11  1  0  0  0
  8 12  1  0  0  0
  9 13  1  0  0  0
 10 12  1  0  0  0
 10 13  2  0  0  0
 11 14  1  0  0  0
 11 15  1  0  0  0
 12 16  1  0  0  0
 17 18  1  0  0  0
 18 20  2  0  0  0
 18 23  1  0  0  0
 19 20  1  0  0  0
 19 21  2  0  0  0
 19 22  1  0  0  0
 21 23  1  0  0  0
 23 24  1  0  0  0
M  END
> <s_m_entry_id>
912

> <s_m_entry_name>
10-myco-1_39_lig_gen_fit_add_gna.sdf.9

> <s_m_Source_Path>
C:\Users\maila\Downloads\mgr\myco-analysis

> <s_m_Source_File>
myco-10-var1-wzakresie.mae

> <i_m_Source_File_Index>
59

> <s_user_SMILES>
[nH]1cc(C)cc1CC2CC=C(C=23)C=C3c4cc(N)[nH]n4

> <minimizedAffinity>
-8.58701

> <minimizedRMSD>
1.29267

> <CNNscore>
0.9023447037

> <CNNaffinity>
6.5562410355

> <CNN_VS>
5.915989399

> <CNNaffinity_variance>
0.1135859936

$$$$
C1C=CC=C1Cc2cccc(c23)C=C3c(c4)nnc(N)c4C
                    3D
 Schrodinger Suite 2021-1.
 24 27  0  0  1  0            999 V2000
  -22.9043   21.3363  -10.8562 C   0  0  0  0  0  0
  -24.0307   19.3165  -11.5646 C   0  0  0  0  0  0
  -22.1511   18.9770  -12.0078 C   0  0  0  0  0  0
  -25.2807   19.7176  -11.2029 C   0  0  0  0  0  0
  -22.9111   20.0669  -11.4301 C   0  0  0  0  0  0
  -25.3360   21.0119  -10.6820 C   0  0  0  0  0  0
  -24.1740   21.7989  -10.4764 C   0  0  0  0  0  0
  -23.2591   18.2347  -12.1083 C   0  0  0  0  0  0
  -18.4937   17.6773  -13.1633 C   0  0  0  0  0  0
  -20.7575   18.6439  -12.1589 C   0  0  0  0  0  0
  -19.6284   16.8495  -12.9533 C   0  0  0  0  0  0
  -17.2040   17.1462  -13.4266 N   0  0  0  0  0  0
  -19.8138   19.5128  -12.5750 N   0  0  0  0  0  0
  -18.6377   19.0197  -12.9767 N   0  0  0  0  0  0
  -20.7032   16.5957  -14.0014 C   0  0  0  0  0  0
  -20.3642   17.3282  -11.9181 C   0  0  0  0  0  0
  -16.9655   16.2079  -13.0624 H   0  0  0  0  0  0
  -16.4244   17.7821  -13.7042 H   0  0  0  0  0  0
  -21.7353   22.2765  -10.8802 C   0  0  0  0  0  0
  -21.6624   23.2055   -9.6838 C   0  0  0  0  0  0
  -21.8911   24.2253   -7.6165 C   0  0  0  0  0  0
  -21.4136   25.1061   -8.4775 C   0  0  0  0  0  0
  -21.2723   24.4715   -9.7720 C   0  0  0  0  0  0
  -22.0779   22.8990   -8.2722 C   0  0  0  0  0  0
  1 19  1  0  0  0
  1  5  2  0  0  0
  1  7  1  0  0  0
  2  4  2  0  0  0
  2  5  1  0  0  0
  2  8  1  0  0  0
  3 10  1  0  0  0
  3  5  1  0  0  0
  3  8  2  0  0  0
  4  6  1  0  0  0
  6  7  2  0  0  0
  9 11  2  0  0  0
  9 12  1  0  0  0
  9 14  1  0  0  0
 10 13  1  0  0  0
 10 16  2  0  0  0
 11 15  1  0  0  0
 11 16  1  0  0  0
 12 17  1  0  0  0
 12 18  1  0  0  0
 13 14  2  0  0  0
 19 20  1  0  0  0
 20 23  2  0  0  0
 20 24  1  0  0  0
 21 22  2  0  0  0
 21 24  1  0  0  0
 22 23  1  0  0  0
M  END
> <s_m_entry_id>
913

> <s_m_entry_name>
10-myco-1_40_lig_gen_fit_add_gna.sdf.1

> <s_m_Source_Path>
C:\Users\maila\Downloads\mgr\myco-analysis

> <s_m_Source_File>
myco-10-var1-wzakresie.mae

> <i_m_Source_File_Index>
60

> <s_user_SMILES>
C1C=CC=C1Cc2cccc(c23)C=C3c(c4)nnc(N)c4C

> <minimizedAffinity>
-8.89658

> <minimizedRMSD>
1.35891

> <CNNscore>
0.8809387684

> <CNNaffinity>
6.7463011742

> <CNN_VS>
5.9430780411

> <CNNaffinity_variance>
0.1463609487

$$$$
NCc1c(C)[nH]nc1-c2ccc(c23)cccn3Cc4ccccc4
                    3D
 Schrodinger Suite 2021-1.
 27 30  0  0  1  0            999 V2000
  -24.4964   19.9877  -11.0831 C   0  0  0  0  0  0
  -25.1410   21.9964  -10.0461 C   0  0  0  0  0  0
  -23.1747   20.5118  -11.3541 C   0  0  0  0  0  0
  -22.4636   19.4399  -11.9825 C   0  0  0  0  0  0
  -23.3871   18.3881  -12.0402 C   0  0  0  0  0  0
  -25.4157   20.6786  -10.3424 C   0  0  0  0  0  0
  -22.8961   21.8062  -10.9484 N   0  0  0  0  0  0
  -24.6138   18.7331  -11.5489 C   0  0  0  0  0  0
  -23.9121   22.5487  -10.3897 C   0  0  0  0  0  0
  -20.0063   20.0342  -12.0219 N   0  0  0  0  0  0
  -21.0141   19.2002  -12.3367 C   0  0  0  0  0  0
  -19.0647   18.1981  -12.7058 C   0  0  0  0  0  0
  -17.9688   17.2344  -13.0533 C   0  0  0  0  0  0
  -18.8563   19.4275  -12.2660 N   0  0  0  0  0  0
  -20.4181   18.0039  -12.7785 C   0  0  0  0  0  0
  -17.9215   19.8183  -12.0926 H   0  0  0  0  0  0
  -21.0022   16.6929  -13.1321 C   0  0  0  0  0  0
  -20.8884   15.7558  -12.0221 N   0  0  0  0  0  0
  -19.9373   15.8427  -11.6003 H   0  0  0  0  0  0
  -20.9516   14.7872  -12.4104 H   0  0  0  0  0  0
  -21.6551   22.5550  -11.1293 C   0  0  0  0  0  0
  -21.2010   24.8100  -10.0803 C   0  0  0  0  0  0
  -20.8492   23.6932   -7.5420 C   0  0  0  0  0  0
  -20.9115   25.6310   -8.9863 C   0  0  0  0  0  0
  -21.1383   22.8689   -8.6332 C   0  0  0  0  0  0
  -21.3058   23.4173   -9.9220 C   0  0  0  0  0  0
  -20.7324   25.0727   -7.7189 C   0  0  0  0  0  0
  1  3  1  0  0  0
  1  6  2  0  0  0
  1  8  1  0  0  0
  2  6  1  0  0  0
  2  9  2  0  0  0
  3  4  2  0  0  0
  3  7  1  0  0  0
  4 11  1  0  0  0
  4  5  1  0  0  0
  5  8  2  0  0  0
  7 21  1  0  0  0
  7  9  1  0  0  0
 10 11  2  0  0  0
 10 14  1  0  0  0
 11 15  1  0  0  0
 12 13  1  0  0  0
 12 14  1  0  0  0
 12 15  2  0  0  0
 14 16  1  0  0  0
 15 17  1  0  0  0
 17 18  1  0  0  0
 18 19  1  0  0  0
 18 20  1  0  0  0
 21 26  1  0  0  0
 22 24  2  0  0  0
 22 26  1  0  0  0
 23 25  1  0  0  0
 23 27  2  0  0  0
 24 27  1  0  0  0
 25 26  2  0  0  0
M  END
> <s_m_entry_id>
914

> <s_m_entry_name>
10-myco-1_40_lig_gen_fit_add_gna.sdf.3

> <s_m_Source_Path>
C:\Users\maila\Downloads\mgr\myco-analysis

> <s_m_Source_File>
myco-10-var1-wzakresie.mae

> <i_m_Source_File_Index>
61

> <s_user_SMILES>
NCc1c(C)[nH]nc1-c2ccc(c23)cccn3Cc4ccccc4

> <minimizedAffinity>
-9.14136

> <minimizedRMSD>
0.40911

> <CNNscore>
0.7874856591

> <CNNaffinity>
6.5485944748

> <CNN_VS>
5.1569242477

> <CNNaffinity_variance>
0.1267339587

$$$$
CC1=C(N)N=N[C@H]1C2=CC=CNC(=C2)NC3=CCC=C3
                    3D
 Schrodinger Suite 2021-1.
 24 26  0  0  1  0            999 V2000
  -24.2142   19.0650  -11.4608 C   0  0  0  0  0  0
  -22.9945   18.4250  -11.9096 C   0  0  0  0  0  0
  -22.2550   20.6561  -12.0259 C   0  0  0  0  0  0
  -21.9506   19.2381  -12.2111 C   0  0  0  0  0  0
  -22.9604   21.6674  -11.5715 C   0  0  0  0  0  0
  -24.3193   21.4052  -11.1083 N   0  0  0  0  0  0
  -24.9349   20.0880  -11.0911 C   0  0  0  0  0  0
  -24.8816   22.2066  -10.7441 H   0  0  0  0  0  0
  -19.9771   17.6103  -12.7426 C   0  0  0  0  0  0
  -18.7427   17.9917  -13.0854 C   0  0  0  0  0  0
  -20.5332   18.7523  -11.9808 C   0  0  1  0  0  0
  -17.6570   17.1351  -13.4172 N   0  0  0  0  0  0
  -19.5465   19.8013  -12.1746 N   0  0  0  0  0  0
  -18.5276   19.3497  -12.7737 N   0  0  0  0  0  0
  -20.4231   16.2164  -12.4501 C   0  0  0  0  0  0
  -17.6730   16.1352  -13.1568 H   0  0  0  0  0  0
  -16.7353   17.5525  -13.6690 H   0  0  0  0  0  0
  -22.2903   22.8684  -11.1786 N   0  0  0  0  0  0
  -21.6508   23.3247  -11.8618 H   0  0  0  0  0  0
  -22.1358   23.1365   -7.5669 C   0  0  0  0  0  0
  -22.5503   22.4941   -8.6455 C   0  0  0  0  0  0
  -22.2148   23.2957   -9.8119 C   0  0  0  0  0  0
  -21.5201   24.4473   -7.9349 C   0  0  0  0  0  0
  -21.6211   24.4134   -9.4240 C   0  0  0  0  0  0
  1  2  1  0  0  0
  1  7  2  0  0  0
  2  4  2  0  0  0
  3  4  1  0  0  0
  3  5  2  0  0  0
  4 11  1  0  0  0
  5 18  1  0  0  0
  5  6  1  0  0  0
  6  7  1  0  0  0
  6  8  1  0  0  0
  9 10  2  0  0  0
  9 11  1  0  0  0
  9 15  1  0  0  0
 10 12  1  0  0  0
 10 14  1  0  0  0
 11 13  1  0  0  0
 12 16  1  0  0  0
 12 17  1  0  0  0
 13 14  2  0  0  0
 18 22  1  0  0  0
 18 19  1  0  0  0
 20 21  2  0  0  0
 20 23  1  0  0  0
 21 22  1  0  0  0
 22 24  2  0  0  0
 23 24  1  0  0  0
M  END
> <s_m_entry_id>
915

> <s_m_entry_name>
10-myco-1_40_lig_gen_fit_add_gna.sdf.4

> <s_m_Source_Path>
C:\Users\maila\Downloads\mgr\myco-analysis

> <s_m_Source_File>
myco-10-var1-wzakresie.mae

> <i_m_Source_File_Index>
62

> <s_user_SMILES>
CC1=C(N)N=N[C@H]1C2=CC=CNC(=C2)NC3=CCC=C3

> <minimizedAffinity>
-9.50496

> <minimizedRMSD>
0.5784

> <CNNscore>
0.8612614274

> <CNNaffinity>
6.5000891685

> <CNN_VS>
5.5982761383

> <CNNaffinity_variance>
0.1724035144

$$$$
c1ccccc1CC(=CC2)c3c2cc(c34)c5c4nc(N)c5N
                    3D
 Schrodinger Suite 2021-1.
 26 30  0  0  1  0            999 V2000
  -21.6692   18.4470  -12.1770 C   0  0  0  0  0  0
  -19.9472   19.9842  -12.4005 N   0  0  0  0  0  0
  -20.5631   17.7173  -12.4590 C   0  0  0  0  0  0
  -24.6027   20.1179  -11.2336 C   0  0  0  0  0  0
  -20.4323   16.3061  -12.4388 N   0  0  0  0  0  0
  -24.8933   22.0656  -10.0256 C   0  0  0  0  0  0
  -19.5286   18.6847  -12.5899 C   0  0  0  0  0  0
  -23.5607   20.9913  -11.4739 C   0  0  0  0  0  0
  -21.2454   19.7753  -12.1707 C   0  0  0  0  0  0
  -25.5681   20.7356  -10.2869 C   0  0  0  0  0  0
  -18.1667   18.3601  -12.8658 N   0  0  0  0  0  0
  -22.5147   20.2081  -11.8479 C   0  0  0  0  0  0
  -24.2746   18.7649  -11.4874 C   0  0  0  0  0  0
  -22.9500   18.8633  -11.8509 C   0  0  0  0  0  0
  -23.7135   22.1671  -10.6524 C   0  0  0  0  0  0
  -21.0346   15.7351  -11.8197 H   0  0  0  0  0  0
  -19.7159   15.8356  -13.0194 H   0  0  0  0  0  0
  -17.4682   19.1202  -13.0108 H   0  0  0  0  0  0
  -17.8546   17.3687  -12.9517 H   0  0  0  0  0  0
  -22.7543   23.3216  -10.5897 C   0  0  0  0  0  0
  -22.0146   23.4646   -9.2770 C   0  0  0  0  0  0
  -20.4769   23.6074   -6.9272 C   0  0  0  0  0  0
  -20.7872   24.1489   -9.2667 C   0  0  0  0  0  0
  -22.4460   22.8253   -8.0964 C   0  0  0  0  0  0
  -21.6856   22.9092   -6.9269 C   0  0  0  0  0  0
  -20.0248   24.2198   -8.0981 C   0  0  0  0  0  0
  1  3  2  0  0  0
  1  9  1  0  0  0
  1 14  1  0  0  0
  2  7  2  0  0  0
  2  9  1  0  0  0
  3  5  1  0  0  0
  3  7  1  0  0  0
  4  8  2  0  0  0
  4 10  1  0  0  0
  4 13  1  0  0  0
  5 16  1  0  0  0
  5 17  1  0  0  0
  6 10  1  0  0  0
  6 15  2  0  0  0
  7 11  1  0  0  0
  8 12  1  0  0  0
  8 15  1  0  0  0
  9 12  2  0  0  0
 11 18  1  0  0  0
 11 19  1  0  0  0
 12 14  1  0  0  0
 13 14  2  0  0  0
 15 20  1  0  0  0
 20 21  1  0  0  0
 21 23  2  0  0  0
 21 24  1  0  0  0
 22 25  1  0  0  0
 22 26  2  0  0  0
 23 26  1  0  0  0
 24 25  2  0  0  0
M  END
> <s_m_entry_id>
916

> <s_m_entry_name>
10-myco-1_40_lig_gen_fit_add_gna.sdf.6

> <s_m_Source_Path>
C:\Users\maila\Downloads\mgr\myco-analysis

> <s_m_Source_File>
myco-10-var1-wzakresie.mae

> <i_m_Source_File_Index>
63

> <s_user_SMILES>
c1ccccc1CC(=CC2)c3c2cc(c34)c5c4nc(N)c5N

> <minimizedAffinity>
-10.26153

> <minimizedRMSD>
0.61744

> <CNNscore>
0.9584100842

> <CNNaffinity>
6.6608896255

> <CNN_VS>
6.3838639259

> <CNNaffinity_variance>
0.1505882293

$$$$
Nc1[nH]nc(c1CN)-c(c2)ccc(c23)[nH]cc3NC4=CCC=C4
                    3D
 Schrodinger Suite 2021-1.
 30 33  0  0  1  0            999 V2000
  -23.0856   18.4691  -11.9849 C   0  0  0  0  0  0
  -24.4860   20.2576  -11.2077 C   0  0  0  0  0  0
  -23.4494   21.1358  -11.3397 C   0  0  0  0  0  0
  -24.3511   18.9176  -11.5566 C   0  0  0  0  0  0
  -22.1950   20.7326  -11.7681 C   0  0  0  0  0  0
  -25.1860   22.1367  -10.4096 C   0  0  0  0  0  0
  -23.8870   22.3409  -10.8478 C   0  0  0  0  0  0
  -25.5510   20.8552  -10.6443 N   0  0  0  0  0  0
  -21.9838   19.3553  -12.0335 C   0  0  0  0  0  0
  -26.4423   20.4008  -10.3595 H   0  0  0  0  0  0
  -18.6736   17.8961  -12.6407 C   0  0  0  0  0  0
  -17.6285   16.9507  -12.7900 N   0  0  0  0  0  0
  -20.5990   18.9117  -12.3210 C   0  0  0  0  0  0
  -20.0277   17.6613  -12.5218 C   0  0  0  0  0  0
  -18.4498   19.1828  -12.4667 N   0  0  0  0  0  0
  -19.6024   19.7828  -12.2704 N   0  0  0  0  0  0
  -17.8225   15.9481  -12.6666 H   0  0  0  0  0  0
  -16.6500   17.2702  -12.9592 H   0  0  0  0  0  0
  -17.5265   19.6518  -12.4558 H   0  0  0  0  0  0
  -20.0941   15.3927  -13.2412 N   0  0  0  0  0  0
  -20.6343   16.3524  -12.3059 C   0  0  0  0  0  0
  -20.6093   14.4928  -13.1231 H   0  0  0  0  0  0
  -20.3804   15.7537  -14.1645 H   0  0  0  0  0  0
  -23.0685   23.4783  -10.5760 N   0  0  0  0  0  0
  -22.7229   24.0386  -11.3871 H   0  0  0  0  0  0
  -21.7304   23.1841   -7.2154 C   0  0  0  0  0  0
  -22.4866   22.7108   -8.1918 C   0  0  0  0  0  0
  -22.4531   23.6582   -9.2947 C   0  0  0  0  0  0
  -21.1270   24.4960   -7.6042 C   0  0  0  0  0  0
  -21.6800   24.6839   -8.9793 C   0  0  0  0  0  0
  1  4  2  0  0  0
  1  9  1  0  0  0
  2  3  2  0  0  0
  2  4  1  0  0  0
  2  8  1  0  0  0
  3  5  1  0  0  0
  3  7  1  0  0  0
  5  9  2  0  0  0
  6  7  2  0  0  0
  6  8  1  0  0  0
  7 24  1  0  0  0
  8 10  1  0  0  0
  9 13  1  0  0  0
 11 12  1  0  0  0
 11 14  2  0  0  0
 11 15  1  0  0  0
 12 17  1  0  0  0
 12 18  1  0  0  0
 13 14  1  0  0  0
 13 16  2  0  0  0
 14 21  1  0  0  0
 15 16  1  0  0  0
 15 19  1  0  0  0
 20 21  1  0  0  0
 20 22  1  0  0  0
 20 23  1  0  0  0
 24 28  1  0  0  0
 24 25  1  0  0  0
 26 27  2  0  0  0
 26 29  1  0  0  0
 27 28  1  0  0  0
 28 30  2  0  0  0
 29 30  1  0  0  0
M  END
> <s_m_entry_id>
917

> <s_m_entry_name>
10-myco-1_40_lig_gen_fit_add_gna.sdf.7

> <s_m_Source_Path>
C:\Users\maila\Downloads\mgr\myco-analysis

> <s_m_Source_File>
myco-10-var1-wzakresie.mae

> <i_m_Source_File_Index>
64

> <s_user_SMILES>
Nc1[nH]nc(c1CN)-c(c2)ccc(c23)[nH]cc3NC4=CCC=C4

> <minimizedAffinity>
-10.77597

> <minimizedRMSD>
0.41276

> <CNNscore>
0.9709236026

> <CNNaffinity>
7.1195716858

> <CNN_VS>
6.9125599861

> <CNNaffinity_variance>
0.0997900888

$$$$
N1=NC(N)=C(C#N)C12C3=C2C=C4C3=C(C=C4)Cc5ccccc5
                    3D
 Schrodinger Suite 2021-1.
 25 29  0  0  1  0            999 V2000
  -23.0286   20.9883  -11.9970 C   0  0  0  0  0  0
  -19.6305   20.0211  -11.6244 N   0  0  0  0  0  0
  -23.1101   18.5206  -11.5032 C   0  0  0  0  0  0
  -18.7138   18.5068  -12.9335 C   0  0  0  0  0  0
  -23.7758   19.7321  -11.5451 C   0  0  0  0  0  0
  -21.8699   18.9664  -11.9739 C   0  0  0  0  0  0
  -24.8267   20.1584  -10.6465 C   0  0  0  0  0  0
  -21.8093   20.3020  -12.2561 C   0  0  0  0  0  0
  -20.0081   18.3061  -13.1327 C   0  0  0  0  0  0
  -24.6146   21.4475  -10.4026 C   0  0  0  0  0  0
  -17.6925   17.5540  -13.2323 N   0  0  0  0  0  0
  -18.5168   19.5249  -11.9793 N   0  0  0  0  0  0
  -23.4073   21.9237  -11.1191 C   0  0  0  0  0  0
  -20.6734   19.4988  -12.4657 C   0  0  3  0  0  0
  -16.7419   17.6650  -12.8225 H   0  0  0  0  0  0
  -17.8715   16.7524  -13.8728 H   0  0  0  0  0  0
  -20.7960   15.8188  -13.1020 N   0  0  0  0  0  0
  -20.4779   16.9297  -13.1353 C   0  0  0  0  0  0
  -22.8322   23.2896  -10.9258 C   0  0  0  0  0  0
  -20.2963   24.6088   -8.4131 C   0  0  0  0  0  0
  -22.4696   22.8530   -8.4354 C   0  0  0  0  0  0
  -22.0521   23.4530   -9.6414 C   0  0  0  0  0  0
  -20.9742   24.3540   -9.6088 C   0  0  0  0  0  0
  -21.7871   23.1095   -7.2426 C   0  0  0  0  0  0
  -20.6985   23.9829   -7.2330 C   0  0  0  0  0  0
  1  5  1  0  0  0
  1  8  1  0  0  0
  1 13  2  0  0  0
  2 12  2  0  0  0
  2 14  1  0  0  0
  3  5  2  0  0  0
  3  6  1  0  0  0
  4  9  2  0  0  0
  4 11  1  0  0  0
  4 12  1  0  0  0
  5  7  1  0  0  0
  6  8  2  0  0  0
  6 14  1  0  0  0
  7 10  2  0  0  0
  8 14  1  0  0  0
  9 18  1  0  0  0
  9 14  1  0  0  0
 10 13  1  0  0  0
 11 15  1  0  0  0
 11 16  1  0  0  0
 13 19  1  0  0  0
 17 18  3  0  0  0
 19 22  1  0  0  0
 20 23  2  0  0  0
 20 25  1  0  0  0
 21 22  2  0  0  0
 21 24  1  0  0  0
 22 23  1  0  0  0
 24 25  2  0  0  0
M  END
> <s_m_entry_id>
918

> <s_m_entry_name>
10-myco-1_40_lig_gen_fit_add_gna.sdf.9

> <s_m_Source_Path>
C:\Users\maila\Downloads\mgr\myco-analysis

> <s_m_Source_File>
myco-10-var1-wzakresie.mae

> <i_m_Source_File_Index>
65

> <s_user_SMILES>
N1=NC(N)=C(C#N)C12C3=C2C=C4C3=C(C=C4)Cc5ccccc5

> <minimizedAffinity>
-8.62737

> <minimizedRMSD>
0.26832

> <CNNscore>
0.8333916068

> <CNNaffinity>
6.8614454269

> <CNN_VS>
5.7182712555

> <CNNaffinity_variance>
0.0635692626

$$$$
C1=CCC=C1Cn(cc2)c(c23)cc(cc3)C4=NN=C(N)[C@H]4N
                    3D
 Schrodinger Suite 2021-1.
 26 29  0  0  1  0            999 V2000
  -23.3403   21.0799  -11.2663 C   0  0  0  0  0  0
  -24.3335   20.1593  -11.0790 C   0  0  0  0  0  0
  -23.0147   18.4560  -12.1375 C   0  0  0  0  0  0
  -21.9419   19.3715  -12.2441 C   0  0  0  0  0  0
  -24.9188   22.0869  -10.1958 C   0  0  0  0  0  0
  -25.3472   20.7797  -10.3875 C   0  0  0  0  0  0
  -22.1511   20.7303  -11.9010 C   0  0  0  0  0  0
  -23.6953   22.2750  -10.7444 N   0  0  0  0  0  0
  -24.2353   18.8584  -11.5629 C   0  0  0  0  0  0
  -18.6027   17.8986  -12.9835 C   0  0  0  0  0  0
  -18.3570   19.0794  -12.5496 N   0  0  0  0  0  0
  -20.0686   17.5600  -12.9197 C   0  0  1  0  0  0
  -20.3526   16.5518  -11.8993 N   0  0  0  0  0  0
  -17.5678   17.0414  -13.4404 N   0  0  0  0  0  0
  -20.5549   18.9132  -12.4776 C   0  0  0  0  0  0
  -19.5597   19.6915  -12.2203 N   0  0  0  0  0  0
  -20.8326   15.7414  -12.3543 H   0  0  0  0  0  0
  -19.4655   16.1794  -11.4921 H   0  0  0  0  0  0
  -17.7703   16.0521  -13.6542 H   0  0  0  0  0  0
  -16.5959   17.4001  -13.5561 H   0  0  0  0  0  0
  -23.0153   23.5648  -10.8997 C   0  0  0  0  0  0
  -22.1545   24.9177   -8.9529 C   0  0  0  0  0  0
  -20.8767   23.1470   -9.4762 C   0  0  0  0  0  0
  -22.0943   23.8649   -9.7557 C   0  0  0  0  0  0
  -21.0209   24.9029   -7.9841 C   0  0  0  0  0  0
  -20.2632   23.7080   -8.4481 C   0  0  0  0  0  0
  1  2  2  0  0  0
  1  7  1  0  0  0
  1  8  1  0  0  0
  2  6  1  0  0  0
  2  9  1  0  0  0
  3  4  1  0  0  0
  3  9  2  0  0  0
  4  7  2  0  0  0
  4 15  1  0  0  0
  5  6  2  0  0  0
  5  8  1  0  0  0
  8 21  1  0  0  0
 10 11  2  0  0  0
 10 12  1  0  0  0
 10 14  1  0  0  0
 11 16  1  0  0  0
 12 13  1  0  0  0
 12 15  1  0  0  0
 13 17  1  0  0  0
 13 18  1  0  0  0
 14 19  1  0  0  0
 14 20  1  0  0  0
 15 16  2  0  0  0
 21 24  1  0  0  0
 22 24  2  0  0  0
 22 25  1  0  0  0
 23 24  1  0  0  0
 23 26  2  0  0  0
 25 26  1  0  0  0
M  END
> <s_m_entry_id>
919

> <s_m_entry_name>
10-myco-1_40_lig_gen_fit_add_gna.sdf.10

> <s_m_Source_Path>
C:\Users\maila\Downloads\mgr\myco-analysis

> <s_m_Source_File>
myco-10-var1-wzakresie.mae

> <i_m_Source_File_Index>
66

> <s_user_SMILES>
C1=CCC=C1Cn(cc2)c(c23)cc(cc3)C4=NN=C(N)[C@H]4N

> <minimizedAffinity>
-9.60308

> <minimizedRMSD>
0.28073

> <CNNscore>
0.9368175864

> <CNNaffinity>
6.7729196548

> <CNN_VS>
6.3449902534

> <CNNaffinity_variance>
0.0555924959

$$$$
N#Cc1c(N)nnc(c1)C(C2)=c(c=23)n(cc3)CC4=CN=CC4
                    3D
 Schrodinger Suite 2021-1.
 24 27  0  0  1  0            999 V2000
  -25.9370   21.1646  -10.0397 C   0  0  0  0  0  0
  -25.0652   22.2612   -9.8112 C   0  0  0  0  0  0
  -23.9269   20.8255  -10.7904 C   0  0  0  0  0  0
  -23.4376   19.6361  -11.4570 C   0  0  0  0  0  0
  -23.7981   22.0487  -10.2986 N   0  0  0  0  0  0
  -25.1089   20.2825  -10.6472 C   0  0  0  0  0  0
  -24.6330   19.0617  -11.2680 C   0  0  0  0  0  0
  -19.8604   19.5416  -12.3125 N   0  0  0  0  0  0
  -20.7393   17.3395  -12.5404 C   0  0  0  0  0  0
  -19.6452   18.2238  -12.5807 C   0  0  0  0  0  0
  -22.1516   19.1813  -11.9637 C   0  0  0  0  0  0
  -18.3239   17.7865  -12.9036 N   0  0  0  0  0  0
  -21.9947   17.8406  -12.2556 C   0  0  0  0  0  0
  -21.0729   20.0057  -12.0003 N   0  0  0  0  0  0
  -18.1128   16.7941  -13.1283 H   0  0  0  0  0  0
  -17.5413   18.4758  -12.9440 H   0  0  0  0  0  0
  -20.6776   14.7798  -12.9019 N   0  0  0  0  0  0
  -20.6582   15.9229  -12.7345 C   0  0  0  0  0  0
  -22.6714   22.9683  -10.4207 C   0  0  0  0  0  0
  -21.4153   24.7985   -7.4017 C   0  0  0  0  0  0
  -22.2796   22.8673   -7.9384 C   0  0  0  0  0  0
  -21.7552   23.6629   -6.8877 N   0  0  0  0  0  0
  -21.6868   24.8777   -8.8671 C   0  0  0  0  0  0
  -22.2659   23.5243   -9.0876 C   0  0  0  0  0  0
  1  2  2  0  0  0
  1  6  1  0  0  0
  2  5  1  0  0  0
  3  4  2  0  0  0
  3  5  1  0  0  0
  3  6  1  0  0  0
  4 11  1  0  0  0
  4  7  1  0  0  0
  5 19  1  0  0  0
  6  7  2  0  0  0
  8 10  2  0  0  0
  8 14  1  0  0  0
  9 10  1  0  0  0
  9 13  2  0  0  0
  9 18  1  0  0  0
 10 12  1  0  0  0
 11 13  1  0  0  0
 11 14  2  0  0  0
 12 15  1  0  0  0
 12 16  1  0  0  0
 17 18  3  0  0  0
 19 24  1  0  0  0
 20 22  2  0  0  0
 20 23  1  0  0  0
 21 22  1  0  0  0
 21 24  2  0  0  0
 23 24  1  0  0  0
M  END
> <s_m_entry_id>
920

> <s_m_entry_name>
10-myco-1_41_lig_gen_fit_add_gna.sdf.2

> <s_m_Source_Path>
C:\Users\maila\Downloads\mgr\myco-analysis

> <s_m_Source_File>
myco-10-var1-wzakresie.mae

> <i_m_Source_File_Index>
67

> <s_user_SMILES>
N#Cc1c(N)nnc(c1)C(C2)=c(c=23)n(cc3)CC4=CN=CC4

> <minimizedAffinity>
-8.96752

> <minimizedRMSD>
0.43633

> <CNNscore>
0.993950665

> <CNNaffinity>
7.0355024338

> <CNN_VS>
6.9929423332

> <CNNaffinity_variance>
0.1375575215

$$$$
[H]\N=C\C1=C(N)N=N[C@H]1C(C2)=CC(C=23)=CC=C3Cc4ccncc4
                    3D
 Schrodinger Suite 2021-1.
 26 29  0  0  1  0            999 V2000
  -23.1606   20.5254  -11.6327 C   0  0  0  0  0  0
  -21.6077   19.0228  -12.2404 C   0  0  0  0  0  0
  -23.7335   19.2533  -11.6334 C   0  0  0  0  0  0
  -22.7214   18.2992  -12.0208 C   0  0  0  0  0  0
  -23.9895   21.3735  -10.7973 C   0  0  0  0  0  0
  -21.8970   20.4663  -11.9954 C   0  0  0  0  0  0
  -24.8298   19.2298  -10.8986 C   0  0  0  0  0  0
  -25.0118   20.6072  -10.3935 C   0  0  0  0  0  0
  -19.8618   17.2096  -12.7231 C   0  0  0  0  0  0
  -18.3036   18.8050  -13.0549 N   0  0  0  0  0  0
  -18.6677   17.4614  -13.2502 C   0  0  0  0  0  0
  -20.2409   18.4547  -12.0048 C   0  0  1  0  0  0
  -17.6941   16.4709  -13.5624 N   0  0  0  0  0  0
  -19.1964   19.3825  -12.3704 N   0  0  0  0  0  0
  -16.7248   16.7581  -13.8063 H   0  0  0  0  0  0
  -17.8742   15.4682  -13.3708 H   0  0  0  0  0  0
  -20.1423   15.9271  -12.1135 C   0  0  0  0  0  0
  -21.2079   15.2589  -12.3891 N   0  0  0  0  0  0
  -21.4000   14.3484  -11.9170 H   0  0  0  0  0  0
  -23.8428   22.8398  -10.5453 C   0  0  0  0  0  0
  -21.8865   22.9842   -7.2947 C   0  0  0  0  0  0
  -20.7007   24.2374   -8.9250 C   0  0  0  0  0  0
  -22.8549   22.6320   -8.2379 C   0  0  0  0  0  0
  -22.7551   23.1234   -9.5466 C   0  0  0  0  0  0
  -21.6575   23.9252   -9.8936 C   0  0  0  0  0  0
  -20.8383   23.7716   -7.6551 N   0  0  0  0  0  0
  1  3  1  0  0  0
  1  5  1  0  0  0
  1  6  2  0  0  0
  2  4  2  0  0  0
  2 12  1  0  0  0
  2  6  1  0  0  0
  3  4  1  0  0  0
  3  7  2  0  0  0
  5 20  1  0  0  0
  5  8  2  0  0  0
  7  8  1  0  0  0
  9 11  2  0  0  0
  9 12  1  0  0  0
  9 17  1  0  0  0
 10 11  1  0  0  0
 10 14  2  0  0  0
 11 13  1  0  0  0
 12 14  1  0  0  0
 13 15  1  0  0  0
 13 16  1  0  0  0
 17 18  2  0  0  0
 18 19  1  0  0  0
 20 24  1  0  0  0
 21 23  2  0  0  0
 21 26  1  0  0  0
 22 25  1  0  0  0
 22 26  2  0  0  0
 23 24  1  0  0  0
 24 25  2  0  0  0
M  END
> <s_m_entry_id>
921

> <s_m_entry_name>
10-myco-1_41_lig_gen_fit_add_gna.sdf.3

> <s_m_Source_Path>
C:\Users\maila\Downloads\mgr\myco-analysis

> <s_m_Source_File>
myco-10-var1-wzakresie.mae

> <i_m_Source_File_Index>
68

> <s_user_SMILES>
[H]\N=C\C1=C(N)N=N[C@H]1C(C2)=CC(C=23)=CC=C3Cc4ccncc4

> <minimizedAffinity>
-9.14575

> <minimizedRMSD>
0.59096

> <CNNscore>
0.7215027809

> <CNNaffinity>
6.9400849342

> <CNN_VS>
5.0072903633

> <CNNaffinity_variance>
0.0920736268

$$$$
Nc1[nH]nc(c1C#N)/C=C\C2=C[C@H](C=C2)CC3=CCC=C3
                    3D
 Schrodinger Suite 2021-1.
 24 26  0  0  1  0            999 V2000
  -22.6017   18.5251  -12.3218 C   0  0  0  0  0  0
  -23.5030   19.3650  -11.7859 C   0  0  0  0  0  0
  -19.0226   18.0047  -12.2545 C   0  0  0  0  0  0
  -20.2905   17.4897  -12.3434 C   0  0  0  0  0  0
  -21.1246   18.5901  -12.2577 C   0  0  0  0  0  0
  -17.8006   17.2728  -12.3010 N   0  0  0  0  0  0
  -19.0980   19.3348  -12.1183 N   0  0  0  0  0  0
  -20.3708   19.7021  -12.1238 N   0  0  0  0  0  0
  -16.8908   17.7584  -12.1588 H   0  0  0  0  0  0
  -17.7967   16.2549  -12.5153 H   0  0  0  0  0  0
  -18.2922   19.9838  -12.0043 H   0  0  0  0  0  0
  -20.9799   14.9953  -12.4307 N   0  0  0  0  0  0
  -20.6692   16.1075  -12.3951 C   0  0  0  0  0  0
  -23.3293   21.9429   -9.2064 C   0  0  0  0  0  0
  -22.3578   21.5241  -11.2662 C   0  0  0  0  0  0
  -23.2135   20.5564  -10.9788 C   0  0  0  0  0  0
  -23.8658   20.8490   -9.7164 C   0  0  0  0  0  0
  -22.2560   22.4719  -10.1130 C   0  0  1  0  0  0
  -22.5176   23.9223  -10.5321 C   0  0  0  0  0  0
  -21.8451   26.2157   -9.7851 C   0  0  0  0  0  0
  -20.1457   25.7121   -8.3037 C   0  0  0  0  0  0
  -20.6127   24.5855   -8.8109 C   0  0  0  0  0  0
  -21.6743   24.9019   -9.7578 C   0  0  0  0  0  0
  -20.8781   26.8840   -8.8656 C   0  0  0  0  0  0
  1  5  1  0  0  0
  1  2  2  0  0  0
  2 16  1  0  0  0
  3  4  2  0  0  0
  3  6  1  0  0  0
  3  7  1  0  0  0
  4  5  1  0  0  0
  4 13  1  0  0  0
  5  8  2  0  0  0
  6  9  1  0  0  0
  6 10  1  0  0  0
  7  8  1  0  0  0
  7 11  1  0  0  0
 12 13  3  0  0  0
 14 17  2  0  0  0
 14 18  1  0  0  0
 15 16  2  0  0  0
 15 18  1  0  0  0
 16 17  1  0  0  0
 18 19  1  0  0  0
 19 23  1  0  0  0
 20 23  2  0  0  0
 20 24  1  0  0  0
 21 22  2  0  0  0
 21 24  1  0  0  0
 22 23  1  0  0  0
M  END
> <s_m_entry_id>
922

> <s_m_entry_name>
10-myco-1_41_lig_gen_fit_add_gna.sdf.4

> <s_m_Source_Path>
C:\Users\maila\Downloads\mgr\myco-analysis

> <s_m_Source_File>
myco-10-var1-wzakresie.mae

> <i_m_Source_File_Index>
69

> <s_user_SMILES>
Nc1[nH]nc(c1C#N)/C=C\C2=C[C@H](C=C2)CC3=CCC=C3

> <minimizedAffinity>
-8.2127

> <minimizedRMSD>
0.77009

> <CNNscore>
0.9298003316

> <CNNaffinity>
6.6838240623

> <CNN_VS>
6.2146220207

> <CNNaffinity_variance>
0.0656636953

$$$$
N[C@H]1N=NC(=C1/C=N/[H])C(=C2)C=C(C23)C=CC=3CC4=CN=CC4
                    3D
 Schrodinger Suite 2021-1.
 25 28  0  0  1  0            999 V2000
  -23.1231   21.1878  -11.6275 C   0  0  0  0  0  0
  -23.6407   22.2283  -10.7801 C   0  0  0  0  0  0
  -23.9078   20.0387  -11.4445 C   0  0  0  0  0  0
  -21.8864   19.4012  -12.1219 C   0  0  0  0  0  0
  -24.7134   21.7096  -10.1639 C   0  0  0  0  0  0
  -21.9064   20.8674  -11.9883 C   0  0  0  0  0  0
  -23.0825   18.8880  -11.7685 C   0  0  0  0  0  0
  -24.8488   20.2778  -10.5424 C   0  0  0  0  0  0
  -20.3559   17.4210  -12.4736 C   0  0  0  0  0  0
  -20.6025   18.6932  -12.2095 C   0  0  0  0  0  0
  -19.3920   19.3488  -11.8871 N   0  0  0  0  0  0
  -18.8649   17.2310  -12.3810 C   0  0  1  0  0  0
  -18.2563   16.9685  -13.6809 N   0  0  0  0  0  0
  -18.4220   18.5373  -11.9421 N   0  0  0  0  0  0
  -18.9610   16.5892  -14.3455 H   0  0  0  0  0  0
  -17.4995   16.2599  -13.5562 H   0  0  0  0  0  0
  -20.9786   15.1324  -12.6159 N   0  0  0  0  0  0
  -21.3310   16.3643  -12.7512 C   0  0  0  0  0  0
  -21.6214   14.3357  -12.8011 H   0  0  0  0  0  0
  -22.9945   23.5654  -10.5609 C   0  0  0  0  0  0
  -22.5062   23.7993   -9.1544 C   0  0  0  0  0  0
  -21.5102   24.6992   -7.3077 C   0  0  0  0  0  0
  -22.4201   22.9123   -8.1697 C   0  0  0  0  0  0
  -21.8852   25.0752   -8.7013 C   0  0  0  0  0  0
  -21.8118   23.4773   -7.0194 N   0  0  0  0  0  0
  1  2  2  0  0  0
  1  3  1  0  0  0
  1  6  1  0  0  0
  2 20  1  0  0  0
  2  5  1  0  0  0
  3  7  2  0  0  0
  3  8  1  0  0  0
  4 10  1  0  0  0
  4  6  2  0  0  0
  4  7  1  0  0  0
  5  8  2  0  0  0
  9 10  2  0  0  0
  9 12  1  0  0  0
  9 18  1  0  0  0
 10 11  1  0  0  0
 11 14  2  0  0  0
 12 13  1  0  0  0
 12 14  1  0  0  0
 13 15  1  0  0  0
 13 16  1  0  0  0
 17 18  2  0  0  0
 17 19  1  0  0  0
 20 21  1  0  0  0
 21 23  2  0  0  0
 21 24  1  0  0  0
 22 24  1  0  0  0
 22 25  2  0  0  0
 23 25  1  0  0  0
M  END
> <s_m_entry_id>
923

> <s_m_entry_name>
10-myco-1_41_lig_gen_fit_add_gna.sdf.5

> <s_m_Source_Path>
C:\Users\maila\Downloads\mgr\myco-analysis

> <s_m_Source_File>
myco-10-var1-wzakresie.mae

> <i_m_Source_File_Index>
70

> <s_user_SMILES>
N[C@H]1N=NC(=C1/C=N/[H])C(=C2)C=C(C23)C=CC=3CC4=CN=CC4

> <minimizedAffinity>
-8.33409

> <minimizedRMSD>
0.11839

> <CNNscore>
0.7361444235

> <CNNaffinity>
6.8223810196

> <CNN_VS>
5.0222578049

> <CNNaffinity_variance>
0.1590950787

$$$$
c1ncccc1Cc2cc(ccc2)C3=NC(N)=C3C
                    3D
 Schrodinger Suite 2021-1.
 21 23  0  0  1  0            999 V2000
  -24.1593   18.9267  -11.3134 C   0  0  0  0  0  0
  -21.9652   20.5832  -11.8349 C   0  0  0  0  0  0
  -24.2346   20.2878  -11.0247 C   0  0  0  0  0  0
  -22.9816   18.3853  -11.8298 C   0  0  0  0  0  0
  -23.1450   21.1292  -11.3025 C   0  0  0  0  0  0
  -21.8676   19.2047  -12.0760 C   0  0  0  0  0  0
  -20.0502   17.2772  -12.6494 C   0  0  0  0  0  0
  -18.8530   17.7839  -12.8475 C   0  0  0  0  0  0
  -20.5621   18.6179  -12.4269 C   0  0  0  0  0  0
  -19.3719   19.0934  -12.6186 N   0  0  0  0  0  0
  -17.5786   17.2415  -13.1719 N   0  0  0  0  0  0
  -20.6118   15.9110  -12.6321 C   0  0  0  0  0  0
  -16.7848   17.8703  -13.4079 H   0  0  0  0  0  0
  -17.4460   16.2095  -13.2240 H   0  0  0  0  0  0
  -23.2246   22.5960  -10.9853 C   0  0  0  0  0  0
  -22.9792   22.5357   -8.4777 C   0  0  0  0  0  0
  -21.0206   23.3222   -7.3960 C   0  0  0  0  0  0
  -21.1888   23.4871   -9.7887 C   0  0  0  0  0  0
  -20.4670   23.7045   -8.6170 C   0  0  0  0  0  0
  -22.4584   22.8948   -9.7298 C   0  0  0  0  0  0
  -22.2535   22.7531   -7.3498 N   0  0  0  0  0  0
  1  3  2  0  0  0
  1  4  1  0  0  0
  2  5  2  0  0  0
  2  6  1  0  0  0
  3  5  1  0  0  0
  4  6  2  0  0  0
  5 15  1  0  0  0
  6  9  1  0  0  0
  7  8  2  0  0  0
  7  9  1  0  0  0
  7 12  1  0  0  0
  8 10  1  0  0  0
  8 11  1  0  0  0
  9 10  2  0  0  0
 11 13  1  0  0  0
 11 14  1  0  0  0
 15 20  1  0  0  0
 16 20  2  0  0  0
 16 21  1  0  0  0
 17 19  1  0  0  0
 17 21  2  0  0  0
 18 19  2  0  0  0
 18 20  1  0  0  0
M  END
> <s_m_entry_id>
924

> <s_m_entry_name>
10-myco-1_41_lig_gen_fit_add_gna.sdf.6

> <s_m_Source_Path>
C:\Users\maila\Downloads\mgr\myco-analysis

> <s_m_Source_File>
myco-10-var1-wzakresie.mae

> <i_m_Source_File_Index>
71

> <s_user_SMILES>
c1ncccc1Cc2cc(ccc2)C3=NC(N)=C3C

> <minimizedAffinity>
-9.26334

> <minimizedRMSD>
0.37532

> <CNNscore>
0.9715629816

> <CNNaffinity>
6.379960537

> <CNN_VS>
6.198533535

> <CNNaffinity_variance>
0.0809590369

$$$$
[H]/N=N\C(N)=C(\C#N)c(c1)ccc(c12)CC=C2Nc3cccnc3
                    3D
 Schrodinger Suite 2021-1.
 27 29  0  0  1  0            999 V2000
  -24.1922   20.1441  -11.2096 C   0  0  0  0  0  0
  -23.0423   20.8207  -11.5188 C   0  0  0  0  0  0
  -23.1515   18.0978  -11.8749 C   0  0  0  0  0  0
  -24.2840   18.7788  -11.4109 C   0  0  0  0  0  0
  -24.3321   22.2736  -10.3454 C   0  0  0  0  0  0
  -23.1360   22.1404  -10.9213 C   0  0  0  0  0  0
  -25.1497   21.0228  -10.4809 C   0  0  0  0  0  0
  -21.9344   20.1765  -12.0827 C   0  0  0  0  0  0
  -21.9392   18.7550  -12.1892 C   0  0  0  0  0  0
  -20.7341   17.9028  -12.5619 C   0  0  0  0  0  0
  -19.4868   18.3712  -12.7783 C   0  0  0  0  0  0
  -18.4201   17.5307  -13.2464 N   0  0  0  0  0  0
  -18.4692   16.5001  -13.2315 H   0  0  0  0  0  0
  -17.5184   17.9541  -13.5597 H   0  0  0  0  0  0
  -19.1384   19.6805  -12.4029 N   0  0  0  0  0  0
  -18.3759   19.8624  -11.4122 N   0  0  0  0  0  0
  -18.0304   19.0699  -10.8217 H   0  0  0  0  0  0
  -20.8460   16.4623  -12.4908 C   0  0  0  0  0  0
  -20.8854   15.3100  -12.4109 N   0  0  0  0  0  0
  -22.0320   23.0473  -10.7742 N   0  0  0  0  0  0
  -21.3289   23.0969  -11.5416 H   0  0  0  0  0  0
  -21.5487   23.1842   -8.3506 C   0  0  0  0  0  0
  -20.9959   25.2652   -7.3489 C   0  0  0  0  0  0
  -21.5544   25.1911   -9.6898 C   0  0  0  0  0  0
  -21.1803   23.9206   -7.2682 N   0  0  0  0  0  0
  -21.1830   25.9258   -8.5639 C   0  0  0  0  0  0
  -21.7527   23.8091   -9.5917 C   0  0  0  0  0  0
  1  2  2  0  0  0
  1  4  1  0  0  0
  1  7  1  0  0  0
  2  6  1  0  0  0
  2  8  1  0  0  0
  3  4  2  0  0  0
  3  9  1  0  0  0
  5  6  2  0  0  0
  5  7  1  0  0  0
  6 20  1  0  0  0
  8  9  2  0  0  0
  9 10  1  0  0  0
 10 11  2  0  0  0
 10 18  1  0  0  0
 11 15  1  0  0  0
 11 12  1  0  0  0
 12 13  1  0  0  0
 12 14  1  0  0  0
 15 16  2  0  0  0
 16 17  1  0  0  0
 18 19  3  0  0  0
 20 27  1  0  0  0
 20 21  1  0  0  0
 22 25  2  0  0  0
 22 27  1  0  0  0
 23 25  1  0  0  0
 23 26  2  0  0  0
 24 26  1  0  0  0
 24 27  2  0  0  0
M  END
> <s_m_entry_id>
925

> <s_m_entry_name>
10-myco-1_41_lig_gen_fit_add_gna.sdf.7

> <s_m_Source_Path>
C:\Users\maila\Downloads\mgr\myco-analysis

> <s_m_Source_File>
myco-10-var1-wzakresie.mae

> <i_m_Source_File_Index>
72

> <s_user_SMILES>
[H]/N=N\C(N)=C(\C#N)c(c1)ccc(c12)CC=C2Nc3cccnc3

> <minimizedAffinity>
-9.01225

> <minimizedRMSD>
0.46401

> <CNNscore>
0.9824820757

> <CNNaffinity>
7.0264635086

> <CNN_VS>
6.9033746719

> <CNNaffinity_variance>
0.0831131116

$$$$
C1=NC=C[C@H]1CC=2C=CC(C23)=CC(=C3)c(c4)nnc(N)c4C
                    3D
 Schrodinger Suite 2021-1.
 24 27  0  0  1  0            999 V2000
  -23.6065   21.6435  -10.8343 C   0  0  0  0  0  0
  -24.3169   20.4490  -10.5113 C   0  0  0  0  0  0
  -23.8200   19.4383  -11.2119 C   0  0  0  0  0  0
  -23.3459   22.3310   -9.7276 C   0  0  0  0  0  0
  -22.6883   19.9672  -12.0010 C   0  0  0  0  0  0
  -24.5283   20.4688   -9.0749 C   0  0  0  0  0  0
  -23.9425   21.5734   -8.6121 C   0  0  0  0  0  0
  -22.6330   21.2882  -11.8390 C   0  0  0  0  0  0
  -19.1069   19.1926  -12.2592 N   0  0  0  0  0  0
  -21.4623   19.2025  -12.3003 C   0  0  0  0  0  0
  -20.2416   17.1380  -12.5416 C   0  0  0  0  0  0
  -19.0425   17.8609  -12.4463 C   0  0  0  0  0  0
  -17.7555   17.2368  -12.5196 N   0  0  0  0  0  0
  -20.2117   15.6600  -12.5173 C   0  0  0  0  0  0
  -21.4667   17.8198  -12.4778 C   0  0  0  0  0  0
  -20.2683   19.8360  -12.1801 N   0  0  0  0  0  0
  -16.8922   17.8211  -12.4695 H   0  0  0  0  0  0
  -17.6343   16.2112  -12.6503 H   0  0  0  0  0  0
  -22.2111   23.3238   -9.6313 C   0  0  0  0  0  0
  -20.0754   23.6349   -8.3360 C   0  0  0  0  0  0
  -20.8917   25.3816   -7.3123 C   0  0  0  0  0  0
  -19.7198   24.7623   -7.8161 N   0  0  0  0  0  0
  -21.9609   24.6380   -7.5263 C   0  0  0  0  0  0
  -21.5531   23.3929   -8.2439 C   0  0  1  0  0  0
  1  2  1  0  0  0
  1  4  2  0  0  0
  1  8  1  0  0  0
  2  3  2  0  0  0
  2  6  1  0  0  0
  3  5  1  0  0  0
  4 19  1  0  0  0
  4  7  1  0  0  0
  5 10  1  0  0  0
  5  8  2  0  0  0
  6  7  2  0  0  0
  9 12  2  0  0  0
  9 16  1  0  0  0
 10 15  1  0  0  0
 10 16  2  0  0  0
 11 12  1  0  0  0
 11 14  1  0  0  0
 11 15  2  0  0  0
 12 13  1  0  0  0
 13 17  1  0  0  0
 13 18  1  0  0  0
 19 24  1  0  0  0
 20 22  2  0  0  0
 20 24  1  0  0  0
 21 22  1  0  0  0
 21 23  2  0  0  0
 23 24  1  0  0  0
M  END
> <s_m_entry_id>
926

> <s_m_entry_name>
10-myco-1_41_lig_gen_fit_add_gna.sdf.8

> <s_m_Source_Path>
C:\Users\maila\Downloads\mgr\myco-analysis

> <s_m_Source_File>
myco-10-var1-wzakresie.mae

> <i_m_Source_File_Index>
73

> <s_user_SMILES>
C1=NC=C[C@H]1CC=2C=CC(C23)=CC(=C3)c(c4)nnc(N)c4C

> <minimizedAffinity>
-9.58672

> <minimizedRMSD>
0.94684

> <CNNscore>
0.9787117243

> <CNNaffinity>
7.0380430222

> <CNN_VS>
6.888215065

> <CNNaffinity_variance>
0.0252405051

$$$$
Nc1n[nH]c(c1C)C=2C=C[C@H](C23)C=CC(=N3)Nc4ccn[nH]4
                    3D
 Schrodinger Suite 2021-1.
 27 30  0  0  1  0            999 V2000
  -24.7205   19.1725  -10.5639 C   0  0  0  0  0  0
  -23.7493   18.6460  -11.2966 C   0  0  0  0  0  0
  -24.4348   21.3318   -9.2899 C   0  0  0  0  0  0
  -24.6655   20.6580  -10.6206 C   0  0  1  0  0  0
  -22.8821   19.7033  -11.8192 C   0  0  0  0  0  0
  -22.7830   22.1158  -11.4388 N   0  0  0  0  0  0
  -23.6631   22.4320   -9.2102 C   0  0  0  0  0  0
  -23.4603   20.8631  -11.4780 C   0  0  0  0  0  0
  -22.8723   22.8870  -10.3939 C   0  0  0  0  0  0
  -21.4330   19.5153  -12.1780 C   0  0  0  0  0  0
  -19.4577   18.6544  -12.6361 C   0  0  0  0  0  0
  -20.8141   18.3771  -12.6993 C   0  0  0  0  0  0
  -20.4461   20.3696  -11.8157 N   0  0  0  0  0  0
  -21.4253   17.0607  -13.0287 C   0  0  0  0  0  0
  -18.3837   17.8024  -13.0301 N   0  0  0  0  0  0
  -19.2601   19.8583  -12.0942 N   0  0  0  0  0  0
  -20.5352   21.2718  -11.3087 H   0  0  0  0  0  0
  -18.5564   16.8923  -13.4988 H   0  0  0  0  0  0
  -17.3959   18.1120  -12.8941 H   0  0  0  0  0  0
  -22.0485   24.0595  -10.3537 N   0  0  0  0  0  0
  -21.7436   24.4653  -11.2618 H   0  0  0  0  0  0
  -21.4692   24.6143   -9.1739 C   0  0  0  0  0  0
  -20.0044   25.1407   -7.6592 C   0  0  0  0  0  0
  -20.3280   24.1474   -8.5606 C   0  0  0  0  0  0
  -21.7812   25.8202   -8.6812 N   0  0  0  0  0  0
  -20.8949   26.1470   -7.7561 N   0  0  0  0  0  0
  -22.5364   26.4500   -9.0216 H   0  0  0  0  0  0
  1  2  2  0  0  0
  1  4  1  0  0  0
  2  5  1  0  0  0
  3  4  1  0  0  0
  3  7  2  0  0  0
  4  8  1  0  0  0
  5 10  1  0  0  0
  5  8  2  0  0  0
  6  8  1  0  0  0
  6  9  2  0  0  0
  7  9  1  0  0  0
  9 20  1  0  0  0
 10 12  2  0  0  0
 10 13  1  0  0  0
 11 12  1  0  0  0
 11 15  1  0  0  0
 11 16  2  0  0  0
 12 14  1  0  0  0
 13 16  1  0  0  0
 13 17  1  0  0  0
 15 18  1  0  0  0
 15 19  1  0  0  0
 20 22  1  0  0  0
 20 21  1  0  0  0
 22 24  2  0  0  0
 22 25  1  0  0  0
 23 24  1  0  0  0
 23 26  2  0  0  0
 25 26  1  0  0  0
 25 27  1  0  0  0
M  END
> <s_m_entry_id>
927

> <s_m_entry_name>
10-myco-1_41_lig_gen_fit_add_gna.sdf.9

> <s_m_Source_Path>
C:\Users\maila\Downloads\mgr\myco-analysis

> <s_m_Source_File>
myco-10-var1-wzakresie.mae

> <i_m_Source_File_Index>
74

> <s_user_SMILES>
Nc1n[nH]c(c1C)C=2C=C[C@H](C23)C=CC(=N3)Nc4ccn[nH]4

> <minimizedAffinity>
-8.91221

> <minimizedRMSD>
0.56193

> <CNNscore>
0.9666681886

> <CNNaffinity>
6.5536117554

> <CNN_VS>
6.3351678848

> <CNNaffinity_variance>
0.1993376017

$$$$
[H]/N=C(N)\[C@H](C#N)C(=CC1)N(C)C=c(c=12)n(cc2)Cc3ccncc3
                    3D
 Schrodinger Suite 2021-1.
 27 29  0  0  1  0            999 V2000
  -22.5599   17.6255  -12.4499 C   0  0  0  0  0  0
  -23.8649   19.4353  -11.2911 C   0  0  0  0  0  0
  -24.8645   21.2398  -10.5040 C   0  0  0  0  0  0
  -21.2796   17.9783  -12.2921 C   0  0  0  0  0  0
  -21.8030   20.5151  -11.9865 C   0  0  0  0  0  0
  -23.0310   20.5193  -11.4515 C   0  0  0  0  0  0
  -23.6646   21.6288  -10.9813 N   0  0  0  0  0  0
  -20.9289   19.3614  -12.0013 N   0  0  0  0  0  0
  -25.0235   19.8893  -10.6837 C   0  0  0  0  0  0
  -19.5447   19.6608  -11.7057 C   0  0  0  0  0  0
  -23.7252   18.2047  -11.7592 C   0  0  0  0  0  0
  -23.1860   23.0130  -10.9332 C   0  0  0  0  0  0
  -21.1037   24.0033   -7.3275 N   0  0  0  0  0  0
  -20.7204   24.5732   -8.4989 C   0  0  0  0  0  0
  -22.8058   22.7483   -8.4343 C   0  0  0  0  0  0
  -22.1225   23.1068   -7.2709 C   0  0  0  0  0  0
  -21.3759   24.2420   -9.6859 C   0  0  0  0  0  0
  -22.4193   23.3038   -9.6663 C   0  0  0  0  0  0
  -20.2319   16.8246  -12.0981 C   0  0  2  0  0  0
  -18.8281   17.0523  -12.6133 C   0  0  0  0  0  0
  -17.7336   17.0805  -11.7039 N   0  0  0  0  0  0
  -18.5911   17.1856  -13.8682 N   0  0  0  0  0  0
  -16.7856   17.3646  -12.0271 H   0  0  0  0  0  0
  -16.7856   17.3646  -12.0272 H   0  0  0  0  0  0
  -19.3724   17.0824  -14.5336 H   0  0  0  0  0  0
  -20.6406   15.4863  -12.5449 C   0  0  0  0  0  0
  -20.9170   14.4155  -12.8800 N   0  0  0  0  0  0
  1  4  2  0  0  0
  1 11  1  0  0  0
  2  6  1  0  0  0
  2  9  1  0  0  0
  2 11  2  0  0  0
  3  7  1  0  0  0
  3  9  2  0  0  0
  4  8  1  0  0  0
  4 19  1  0  0  0
  5  6  2  0  0  0
  5  8  1  0  0  0
  6  7  1  0  0  0
  7 12  1  0  0  0
  8 10  1  0  0  0
 12 18  1  0  0  0
 13 14  2  0  0  0
 13 16  1  0  0  0
 14 17  1  0  0  0
 15 16  2  0  0  0
 15 18  1  0  0  0
 17 18  2  0  0  0
 19 20  1  0  0  0
 19 26  1  0  0  0
 20 21  1  0  0  0
 20 22  2  0  0  0
 21 23  1  0  0  0
 21 24  1  0  0  0
 22 25  1  0  0  0
 26 27  3  0  0  0
M  END
> <s_m_entry_id>
928

> <s_m_entry_name>
10-myco-1_42_lig_gen_fit_add_gna.sdf.1

> <s_m_Source_Path>
C:\Users\maila\Downloads\mgr\myco-analysis

> <s_m_Source_File>
myco-10-var1-wzakresie.mae

> <i_m_Source_File_Index>
75

> <s_user_SMILES>
[H]/N=C(N)\[C@H](C#N)C(=CC1)N(C)C=c(c=12)n(cc2)Cc3ccncc3

> <minimizedAffinity>
-9.5353

> <minimizedRMSD>
0.42706

> <CNNscore>
0.7502427101

> <CNNaffinity>
6.9863004684

> <CNN_VS>
5.2414212227

> <CNNaffinity_variance>
0.1231335774

$$$$
N1N=C(N)C(/C=N/[H])C(=CC2)C=1C=c(c=23)n(cc3)Cc4ccncc4
                    3D
 Schrodinger Suite 2021-1.
 27 30  0  0  1  0            999 V2000
  -18.9434   17.6084  -12.5082 C   0  0  0  0  0  0
  -22.7228   17.8880  -12.6604 C   0  0  0  0  0  0
  -18.6392   18.8498  -12.0872 N   0  0  0  0  0  0
  -17.8838   16.7586  -12.9453 N   0  0  0  0  0  0
  -21.2975   18.1726  -12.3009 C   0  0  0  0  0  0
  -23.8898   19.4633  -11.1420 C   0  0  0  0  0  0
  -23.0868   20.5811  -11.3380 C   0  0  0  0  0  0
  -25.0335   19.8896  -10.4885 C   0  0  0  0  0  0
  -20.2893   17.2155  -12.5415 C   0  0  3  0  0  0
  -23.7526   21.6737  -10.8922 N   0  0  0  0  0  0
  -20.9018   19.4809  -11.9800 C   0  0  0  0  0  0
  -21.8128   20.6244  -11.7722 C   0  0  0  0  0  0
  -23.7095   18.2241  -11.5936 C   0  0  0  0  0  0
  -24.9230   21.2566  -10.3661 C   0  0  0  0  0  0
  -19.5870   19.7328  -11.7997 N   0  0  0  0  0  0
  -16.9144   17.1330  -12.9724 H   0  0  0  0  0  0
  -18.0533   15.8377  -13.3922 H   0  0  0  0  0  0
  -20.9893   14.9725  -12.1025 N   0  0  0  0  0  0
  -20.6249   15.8633  -12.9534 C   0  0  0  0  0  0
  -21.2155   14.0069  -12.4275 H   0  0  0  0  0  0
  -23.3139   23.0692  -10.9539 C   0  0  0  0  0  0
  -21.2295   24.3243   -7.4286 N   0  0  0  0  0  0
  -22.5647   23.4829   -9.7095 C   0  0  0  0  0  0
  -22.0355   23.2325   -7.3597 C   0  0  0  0  0  0
  -21.0699   25.0196   -8.5848 C   0  0  0  0  0  0
  -22.7236   22.7963   -8.4937 C   0  0  0  0  0  0
  -21.7394   24.6176   -9.7422 C   0  0  0  0  0  0
  1  3  2  0  0  0
  1  4  1  0  0  0
  1  9  1  0  0  0
  2  5  2  0  0  0
  2 13  1  0  0  0
  3 15  1  0  0  0
  4 16  1  0  0  0
  4 17  1  0  0  0
  5  9  1  0  0  0
  5 11  1  0  0  0
  6  7  1  0  0  0
  6  8  1  0  0  0
  6 13  2  0  0  0
  7 10  1  0  0  0
  7 12  2  0  0  0
  8 14  2  0  0  0
  9 19  1  0  0  0
 10 21  1  0  0  0
 10 14  1  0  0  0
 11 12  1  0  0  0
 11 15  2  0  0  0
 18 19  2  0  0  0
 18 20  1  0  0  0
 21 23  1  0  0  0
 22 24  2  0  0  0
 22 25  1  0  0  0
 23 26  2  0  0  0
 23 27  1  0  0  0
 24 26  1  0  0  0
 25 27  2  0  0  0
M  END
> <s_m_entry_id>
929

> <s_m_entry_name>
10-myco-1_42_lig_gen_fit_add_gna.sdf.4

> <s_m_Source_Path>
C:\Users\maila\Downloads\mgr\myco-analysis

> <s_m_Source_File>
myco-10-var1-wzakresie.mae

> <i_m_Source_File_Index>
76

> <s_user_SMILES>
N1N=C(N)C(/C=N/[H])C(=CC2)C=1C=c(c=23)n(cc3)Cc4ccncc4

> <minimizedAffinity>
-11.42643

> <minimizedRMSD>
0.25645

> <CNNscore>
0.8593844771

> <CNNaffinity>
7.1551880836

> <CNN_VS>
6.1490573883

> <CNNaffinity_variance>
0.1375219673

$$$$
C1N=CC=C1Nc(ccc2)cc2C3=CC(=O)C(C=N3)N
                    3D
 Schrodinger Suite 2021-1.
 23 25  0  0  1  0            999 V2000
  -24.7968   19.6335  -10.9046 C   0  0  0  0  0  0
  -22.3212   20.6368  -11.7074 C   0  0  0  0  0  0
  -22.5807   19.2619  -11.8526 C   0  0  0  0  0  0
  -23.2575   21.4866  -11.1227 C   0  0  0  0  0  0
  -24.4974   20.9859  -10.7114 C   0  0  0  0  0  0
  -23.8465   18.7729  -11.4686 C   0  0  0  0  0  0
  -21.4642   18.3562  -12.2437 C   0  0  0  0  0  0
  -19.1251   16.7663  -12.6933 C   0  0  3  0  0  0
  -20.2482   18.8159  -12.1541 N   0  0  0  0  0  0
  -19.0640   18.0543  -12.3856 C   0  0  0  0  0  0
  -21.7124   16.9065  -12.6039 C   0  0  0  0  0  0
  -17.9146   16.0504  -12.9492 N   0  0  0  0  0  0
  -20.5330   14.8724  -12.9518 O   0  0  0  0  0  0
  -20.4465   16.1122  -12.7636 C   0  0  0  0  0  0
  -16.9859   16.5237  -12.9073 H   0  0  0  0  0  0
  -17.9262   15.0565  -13.2353 H   0  0  0  0  0  0
  -22.8974   22.8455  -10.8791 N   0  0  0  0  0  0
  -22.6325   23.4337  -11.7005 H   0  0  0  0  0  0
  -22.4612   23.2638   -9.5804 C   0  0  0  0  0  0
  -22.5777   22.5543   -8.4710 C   0  0  0  0  0  0
  -21.8286   24.5801   -9.2811 C   0  0  0  0  0  0
  -21.6228   24.5139   -7.8391 N   0  0  0  0  0  0
  -22.0489   23.3748   -7.4017 C   0  0  0  0  0  0
  1  5  2  0  0  0
  1  6  1  0  0  0
  2  3  1  0  0  0
  2  4  2  0  0  0
  3  7  1  0  0  0
  3  6  2  0  0  0
  4  5  1  0  0  0
  4 17  1  0  0  0
  7  9  1  0  0  0
  7 11  2  0  0  0
  8 10  1  0  0  0
  8 12  1  0  0  0
  8 14  1  0  0  0
  9 10  2  0  0  0
 11 14  1  0  0  0
 12 15  1  0  0  0
 12 16  1  0  0  0
 13 14  2  0  0  0
 17 19  1  0  0  0
 17 18  1  0  0  0
 19 20  2  0  0  0
 19 21  1  0  0  0
 20 23  1  0  0  0
 21 22  1  0  0  0
 22 23  2  0  0  0
M  END
> <s_m_entry_id>
930

> <s_m_entry_name>
10-myco-1_42_lig_gen_fit_add_gna.sdf.5

> <s_m_Source_Path>
C:\Users\maila\Downloads\mgr\myco-analysis

> <s_m_Source_File>
myco-10-var1-wzakresie.mae

> <i_m_Source_File_Index>
77

> <s_user_SMILES>
C1N=CC=C1Nc(ccc2)cc2C3=CC(=O)C(C=N3)N

> <minimizedAffinity>
-10.10246

> <minimizedRMSD>
0.63097

> <CNNscore>
0.9910791516

> <CNNaffinity>
6.5994291306

> <CNN_VS>
6.5405564308

> <CNNaffinity_variance>
0.0558276102

$$$$
N1=NC(N)=C(C#N)[C@]12C3=C4C(C=C23)=CC=C4Cc5ccncc5
                    3D
 Schrodinger Suite 2021-1.
 25 29  0  0  1  0            999 V2000
  -24.3898   21.0923  -10.2960 C   0  0  0  0  0  0
  -23.7564   19.2802  -11.4727 C   0  0  0  0  0  0
  -20.0469   17.8870  -13.0892 C   0  0  0  0  0  0
  -22.9866   20.5033  -11.9947 C   0  0  0  0  0  0
  -21.8734   19.8596  -12.1569 C   0  0  0  0  0  0
  -18.7571   18.0787  -12.8652 C   0  0  0  0  0  0
  -21.9139   18.4281  -11.8536 C   0  0  0  0  0  0
  -23.3657   21.5471  -11.0285 C   0  0  0  0  0  0
  -18.5682   19.0481  -11.8582 N   0  0  0  0  0  0
  -17.7405   17.1335  -13.1920 N   0  0  0  0  0  0
  -24.6152   19.6687  -10.5448 C   0  0  0  0  0  0
  -20.7250   19.0247  -12.3488 C   0  0  1  0  0  0
  -23.0009   17.9434  -11.4037 C   0  0  0  0  0  0
  -19.6871   19.5215  -11.4895 N   0  0  0  0  0  0
  -16.8183   17.1896  -12.7179 H   0  0  0  0  0  0
  -17.9053   16.3798  -13.8915 H   0  0  0  0  0  0
  -20.5165   16.5098  -13.1503 C   0  0  0  0  0  0
  -20.8234   15.3952  -13.1694 N   0  0  0  0  0  0
  -22.9085   22.9732  -10.9949 C   0  0  0  0  0  0
  -22.5868   22.7689   -8.4659 C   0  0  0  0  0  0
  -20.9195   24.9818   -8.4506 C   0  0  0  0  0  0
  -22.2649   23.3891   -9.6886 C   0  0  0  0  0  0
  -21.4396   24.5256   -9.6633 C   0  0  0  0  0  0
  -21.2302   24.3445   -7.2926 N   0  0  0  0  0  0
  -22.0471   23.2598   -7.2757 C   0  0  0  0  0  0
  1  8  2  0  0  0
  1 11  1  0  0  0
  2  4  1  0  0  0
  2 11  2  0  0  0
  2 13  1  0  0  0
  3  6  2  0  0  0
  3 17  1  0  0  0
  3 12  1  0  0  0
  4  5  2  0  0  0
  4  8  1  0  0  0
  5  7  1  0  0  0
  5 12  1  0  0  0
  6  9  1  0  0  0
  6 10  1  0  0  0
  7 12  1  0  0  0
  7 13  2  0  0  0
  8 19  1  0  0  0
  9 14  2  0  0  0
 10 15  1  0  0  0
 10 16  1  0  0  0
 12 14  1  0  0  0
 17 18  3  0  0  0
 19 22  1  0  0  0
 20 22  2  0  0  0
 20 25  1  0  0  0
 21 23  2  0  0  0
 21 24  1  0  0  0
 22 23  1  0  0  0
 24 25  2  0  0  0
M  END
> <s_m_entry_id>
931

> <s_m_entry_name>
10-myco-1_42_lig_gen_fit_add_gna.sdf.7

> <s_m_Source_Path>
C:\Users\maila\Downloads\mgr\myco-analysis

> <s_m_Source_File>
myco-10-var1-wzakresie.mae

> <i_m_Source_File_Index>
78

> <s_user_SMILES>
N1=NC(N)=C(C#N)[C@]12C3=C4C(C=C23)=CC=C4Cc5ccncc5

> <minimizedAffinity>
-8.34524

> <minimizedRMSD>
0.36999

> <CNNscore>
0.8395531178

> <CNNaffinity>
7.039935112

> <CNN_VS>
5.910399437

> <CNNaffinity_variance>
0.0420128331

$$$$
c1nc(N)c(C#N)c(c1=C23)=CCC3=C(Cl)C=C2Cc4ccccc4
                    3D
 Schrodinger Suite 2021-1.
 26 29  0  0  1  0            999 V2000
  -23.0746   17.9480  -12.0013 C   0  0  0  0  0  0
  -25.2017   20.4080  -10.2561 C   0  0  0  0  0  0
  -23.5016   21.8856  -10.5065 C   0  0  0  0  0  0
  -24.3341   19.8036  -11.0348 C   0  0  0  0  0  0
  -20.7267   18.1001  -12.4168 C   0  0  0  0  0  0
  -23.1539   20.6225  -11.1976 C   0  0  0  0  0  0
  -19.5461   18.8104  -12.1983 C   0  0  0  0  0  0
  -19.6091   20.0736  -11.7214 N   0  0  0  0  0  0
  -20.7667   20.7401  -11.5059 C   0  0  0  0  0  0
  -24.7035   21.7297   -9.9501 C   0  0  0  0  0  0
  -21.9633   18.7101  -12.0694 C   0  0  0  0  0  0
  -21.9925   20.0815  -11.6444 C   0  0  0  0  0  0
  -18.2632   18.2023  -12.3785 N   0  0  0  0  0  0
  -24.3223   18.3607  -11.2865 C   0  0  0  0  0  0
  -26.4685   19.5735   -9.3923 Cl  0  0  0  0  0  0
  -17.4287   18.6346  -11.9340 H   0  0  0  0  0  0
  -18.1339   17.2979  -12.8834 H   0  0  0  0  0  0
  -20.6294   16.6983  -12.7826 C   0  0  0  0  0  0
  -20.5447   15.5777  -13.0571 N   0  0  0  0  0  0
  -22.7701   23.1942  -10.5062 C   0  0  0  0  0  0
  -20.3023   23.9718   -7.0441 C   0  0  0  0  0  0
  -21.3397   23.0426   -6.9502 C   0  0  0  0  0  0
  -22.1375   22.7674   -8.0642 C   0  0  0  0  0  0
  -21.8889   23.4081   -9.2958 C   0  0  0  0  0  0
  -20.0621   24.6307   -8.2509 C   0  0  0  0  0  0
  -20.8553   24.3575   -9.3689 C   0  0  0  0  0  0
  1 11  2  0  0  0
  1 14  1  0  0  0
  2  4  2  0  0  0
  2 10  1  0  0  0
  2 15  1  0  0  0
  3 20  1  0  0  0
  3  6  1  0  0  0
  3 10  2  0  0  0
  4  6  1  0  0  0
  4 14  1  0  0  0
  5  7  2  0  0  0
  5 18  1  0  0  0
  5 11  1  0  0  0
  6 12  2  0  0  0
  7  8  1  0  0  0
  7 13  1  0  0  0
  8  9  2  0  0  0
  9 12  1  0  0  0
 11 12  1  0  0  0
 13 16  1  0  0  0
 13 17  1  0  0  0
 18 19  3  0  0  0
 20 24  1  0  0  0
 21 22  2  0  0  0
 21 25  1  0  0  0
 22 23  1  0  0  0
 23 24  2  0  0  0
 24 26  1  0  0  0
 25 26  2  0  0  0
M  END
> <s_m_entry_id>
932

> <s_m_entry_name>
10-myco-1_43_lig_gen_fit_add_gna.sdf.2

> <s_m_Source_Path>
C:\Users\maila\Downloads\mgr\myco-analysis

> <s_m_Source_File>
myco-10-var1-wzakresie.mae

> <i_m_Source_File_Index>
79

> <s_user_SMILES>
c1nc(N)c(C#N)c(c1=C23)=CCC3=C(Cl)C=C2Cc4ccccc4

> <minimizedAffinity>
-9.67175

> <minimizedRMSD>
0.3856

> <CNNscore>
0.9361601472

> <CNNaffinity>
6.9345259666

> <CNN_VS>
6.4918270111

> <CNNaffinity_variance>
0.1685510129

$$$$
c1ncccc1CC=2C=C(Cl)C(C23)=CC(=C3)C(=C4C)N=C4
                    3D
 Schrodinger Suite 2021-1.
 21 24  0  0  1  0            999 V2000
  -23.5833   19.3309  -11.4092 C   0  0  0  0  0  0
  -24.7651   20.9281  -10.3843 C   0  0  0  0  0  0
  -22.8930   18.3149  -11.8905 C   0  0  0  0  0  0
  -22.7954   20.4781  -11.3614 C   0  0  0  0  0  0
  -24.8445   19.6442  -10.7634 C   0  0  0  0  0  0
  -21.4788   20.1653  -11.8507 C   0  0  0  0  0  0
  -26.1816   18.5657  -10.4452 Cl  0  0  0  0  0  0
  -21.5312   18.8633  -12.1637 C   0  0  0  0  0  0
  -23.4352   21.4624  -10.7686 C   0  0  0  0  0  0
  -20.0818   16.7864  -12.6256 C   0  0  0  0  0  0
  -18.9729   18.3734  -12.7714 N   0  0  0  0  0  0
  -20.3435   18.0716  -12.4987 C   0  0  0  0  0  0
  -18.6954   17.1151  -12.8923 C   0  0  0  0  0  0
  -20.8655   15.5415  -12.4564 C   0  0  0  0  0  0
  -22.9084   22.8386  -10.5439 C   0  0  0  0  0  0
  -20.7966   23.5035   -9.3359 C   0  0  0  0  0  0
  -22.5950   22.5515   -8.0387 C   0  0  0  0  0  0
  -20.5398   23.2464   -6.9903 C   0  0  0  0  0  0
  -21.8167   22.6933   -6.8884 C   0  0  0  0  0  0
  -22.0829   22.9427   -9.2869 C   0  0  0  0  0  0
  -20.0623   23.6383   -8.2000 N   0  0  0  0  0  0
  1  3  2  0  0  0
  1  4  1  0  0  0
  1  5  1  0  0  0
  2  5  2  0  0  0
  2  9  1  0  0  0
  3  8  1  0  0  0
  4  6  1  0  0  0
  4  9  2  0  0  0
  5  7  1  0  0  0
  6  8  2  0  0  0
  8 12  1  0  0  0
  9 15  1  0  0  0
 10 12  2  0  0  0
 10 13  1  0  0  0
 10 14  1  0  0  0
 11 12  1  0  0  0
 11 13  2  0  0  0
 15 20  1  0  0  0
 16 20  2  0  0  0
 16 21  1  0  0  0
 17 19  2  0  0  0
 17 20  1  0  0  0
 18 19  1  0  0  0
 18 21  2  0  0  0
M  END
> <s_m_entry_id>
933

> <s_m_entry_name>
10-myco-1_43_lig_gen_fit_add_gna.sdf.3

> <s_m_Source_Path>
C:\Users\maila\Downloads\mgr\myco-analysis

> <s_m_Source_File>
myco-10-var1-wzakresie.mae

> <i_m_Source_File_Index>
80

> <s_user_SMILES>
c1ncccc1CC=2C=C(Cl)C(C23)=CC(=C3)C(=C4C)N=C4

> <minimizedAffinity>
-9.26898

> <minimizedRMSD>
0.38273

> <CNNscore>
0.7916045189

> <CNNaffinity>
6.6979894638

> <CNN_VS>
5.3021588326

> <CNNaffinity_variance>
0.0989313126

$$$$
c1nc(C)ccc1CN(C=C[C@H]2c3c24)c4cc(c3)C(=C5C)N=C5N
                    3D
 Schrodinger Suite 2021-1.
 26 30  0  0  1  0            999 V2000
  -23.0935   18.3397  -11.9060 C   0  0  0  0  0  0
  -22.6849   20.9442  -10.3763 C   0  0  0  0  0  0
  -21.8701   19.1247  -12.0061 C   0  0  0  0  0  0
  -23.5624   19.9840  -10.1642 C   0  0  0  0  0  0
  -25.5376   20.9191  -10.4932 C   0  0  0  0  0  0
  -23.3985   22.1848  -10.5223 N   0  0  0  0  0  0
  -21.7592   20.4678  -11.3871 C   0  0  0  0  0  0
  -24.8598   22.1182  -10.6229 C   0  0  0  0  0  0
  -23.9711   18.9308  -11.0463 C   0  0  0  0  0  0
  -24.8683   19.5692  -10.1477 C   0  0  1  0  0  0
  -20.1996   17.2382  -12.6279 C   0  0  0  0  0  0
  -19.2939   18.9493  -12.6902 N   0  0  0  0  0  0
  -17.6070   17.1396  -13.1280 N   0  0  0  0  0  0
  -20.6232   18.4807  -12.4591 C   0  0  0  0  0  0
  -18.8655   17.7406  -12.8522 C   0  0  0  0  0  0
  -20.7651   15.8807  -12.4946 C   0  0  0  0  0  0
  -16.7815   17.7296  -13.3526 H   0  0  0  0  0  0
  -17.5090   16.1026  -13.1163 H   0  0  0  0  0  0
  -22.6950   23.4529  -10.6967 C   0  0  0  0  0  0
  -21.7780   23.9146   -7.0161 C   0  0  0  0  0  0
  -21.1336   25.0030   -9.4847 C   0  0  0  0  0  0
  -22.3587   23.3921   -8.1725 C   0  0  0  0  0  0
  -22.0282   23.9248   -9.4297 C   0  0  0  0  0  0
  -20.5877   25.5009   -8.3449 N   0  0  0  0  0  0
  -20.2366   25.5730   -5.9079 C   0  0  0  0  0  0
  -20.8907   24.9938   -7.1202 C   0  0  0  0  0  0
  1  3  2  0  0  0
  1  9  1  0  0  0
  2  4  1  0  0  0
  2  6  1  0  0  0
  2  7  2  0  0  0
  3 14  1  0  0  0
  3  7  1  0  0  0
  4  9  2  0  0  0
  4 10  1  0  0  0
  5  8  2  0  0  0
  5 10  1  0  0  0
  6 19  1  0  0  0
  6  8  1  0  0  0
  9 10  1  0  0  0
 11 14  2  0  0  0
 11 15  1  0  0  0
 11 16  1  0  0  0
 12 14  1  0  0  0
 12 15  2  0  0  0
 13 15  1  0  0  0
 13 17  1  0  0  0
 13 18  1  0  0  0
 19 23  1  0  0  0
 20 22  2  0  0  0
 20 26  1  0  0  0
 21 23  2  0  0  0
 21 24  1  0  0  0
 22 23  1  0  0  0
 24 26  2  0  0  0
 25 26  1  0  0  0
M  END
> <s_m_entry_id>
934

> <s_m_entry_name>
10-myco-1_43_lig_gen_fit_add_gna.sdf.4

> <s_m_Source_Path>
C:\Users\maila\Downloads\mgr\myco-analysis

> <s_m_Source_File>
myco-10-var1-wzakresie.mae

> <i_m_Source_File_Index>
81

> <s_user_SMILES>
c1nc(C)ccc1CN(C=C[C@H]2c3c24)c4cc(c3)C(=C5C)N=C5N

> <minimizedAffinity>
-9.07364

> <minimizedRMSD>
0.54011

> <CNNscore>
0.9828370214

> <CNNaffinity>
7.1055436134

> <CNN_VS>
6.9835915565

> <CNNaffinity_variance>
0.0850549415

$$$$
NC1=NCC(=C1C#N)C2=CC=C(C2=3)C=CC3Nc4cccnc4
                    3D
 Schrodinger Suite 2021-1.
 26 29  0  0  1  0            999 V2000
  -24.9095   18.7678  -11.0776 C   0  0  0  0  0  0
  -22.6933   19.2713  -11.5534 C   0  0  0  0  0  0
  -25.4830   21.0945  -10.1456 C   0  0  0  0  0  0
  -24.6190   22.1074  -10.0441 C   0  0  0  0  0  0
  -24.7336   20.0279  -10.7702 C   0  0  0  0  0  0
  -23.5940   18.2959  -11.5569 C   0  0  0  0  0  0
  -23.3045   21.6980  -10.5992 C   0  0  0  0  0  0
  -23.4181   20.4451  -11.0304 C   0  0  0  0  0  0
  -19.0136   19.5990  -12.2184 N   0  0  0  0  0  0
  -20.5864   17.9891  -12.2585 C   0  0  0  0  0  0
  -19.2094   18.3586  -12.4626 C   0  0  0  0  0  0
  -20.2821   20.2069  -11.8267 C   0  0  0  0  0  0
  -21.2545   19.0931  -11.8869 C   0  0  0  0  0  0
  -18.1709   17.4867  -12.9076 N   0  0  0  0  0  0
  -17.2053   17.8463  -13.0668 H   0  0  0  0  0  0
  -18.3703   16.4871  -13.1182 H   0  0  0  0  0  0
  -21.0233   16.6273  -12.3436 C   0  0  0  0  0  0
  -21.3254   15.5138  -12.3827 N   0  0  0  0  0  0
  -22.1591   22.5441  -10.7131 N   0  0  0  0  0  0
  -21.6942   22.5952  -11.6415 H   0  0  0  0  0  0
  -20.9205   25.3604   -7.8272 C   0  0  0  0  0  0
  -21.7731   23.4868   -9.7002 C   0  0  0  0  0  0
  -21.3408   23.0658   -8.4312 C   0  0  0  0  0  0
  -21.7487   24.8577   -9.9956 C   0  0  0  0  0  0
  -21.3345   25.7541   -9.0605 N   0  0  0  0  0  0
  -20.9080   24.0057   -7.4941 C   0  0  0  0  0  0
  1  5  2  0  0  0
  1  6  1  0  0  0
  2  6  2  0  0  0
  2 13  1  0  0  0
  2  8  1  0  0  0
  3  4  2  0  0  0
  3  5  1  0  0  0
  4  7  1  0  0  0
  5  8  1  0  0  0
  7 19  1  0  0  0
  7  8  2  0  0  0
  9 11  2  0  0  0
  9 12  1  0  0  0
 10 11  1  0  0  0
 10 17  1  0  0  0
 10 13  2  0  0  0
 11 14  1  0  0  0
 12 13  1  0  0  0
 14 15  1  0  0  0
 14 16  1  0  0  0
 17 18  3  0  0  0
 19 22  1  0  0  0
 19 20  1  0  0  0
 21 25  2  0  0  0
 21 26  1  0  0  0
 22 23  1  0  0  0
 22 24  2  0  0  0
 23 26  2  0  0  0
 24 25  1  0  0  0
M  END
> <s_m_entry_id>
935

> <s_m_entry_name>
10-myco-1_43_lig_gen_fit_add_gna.sdf.6

> <s_m_Source_Path>
C:\Users\maila\Downloads\mgr\myco-analysis

> <s_m_Source_File>
myco-10-var1-wzakresie.mae

> <i_m_Source_File_Index>
82

> <s_user_SMILES>
NC1=NCC(=C1C#N)C2=CC=C(C2=3)C=CC3Nc4cccnc4

> <minimizedAffinity>
-8.9934

> <minimizedRMSD>
0.77057

> <CNNscore>
0.8436840773

> <CNNaffinity>
6.9841170311

> <CNN_VS>
5.8923883438

> <CNNaffinity_variance>
0.0644199252

$$$$
c1nc(N)ccc1CN(C=C2F)[C@H](C2=3)C=C(C3)C(=C4C)CN=C4N
                    3D
 Schrodinger Suite 2021-1.
 28 31  0  0  1  0            999 V2000
  -24.3948   20.0140  -10.4465 C   0  0  0  0  0  0
  -23.7257   19.0939  -11.1257 C   0  0  0  0  0  0
  -23.8349   21.3692  -10.6712 C   0  0  1  0  0  0
  -22.5680   19.7361  -11.7438 C   0  0  0  0  0  0
  -24.5910   19.8622   -9.0231 C   0  0  0  0  0  0
  -23.4591   21.8311   -9.3268 N   0  0  0  0  0  0
  -22.6624   21.0449  -11.5251 C   0  0  0  0  0  0
  -24.0158   20.8789   -8.4073 C   0  0  0  0  0  0
  -25.0843   18.7625   -8.4024 F   0  0  0  0  0  0
  -21.2447   19.1204  -12.0205 C   0  0  0  0  0  0
  -18.9228   18.9765  -12.1586 N   0  0  0  0  0  0
  -20.8927   17.8637  -12.2780 C   0  0  0  0  0  0
  -19.4469   17.8244  -12.3694 C   0  0  0  0  0  0
  -18.6660   16.6668  -12.6651 N   0  0  0  0  0  0
  -21.7545   16.7022  -12.5473 C   0  0  0  0  0  0
  -20.0024   19.9187  -11.8916 C   0  0  0  0  0  0
  -17.6254   16.7330  -12.7242 H   0  0  0  0  0  0
  -19.1233   15.7440  -12.8298 H   0  0  0  0  0  0
  -22.2139   22.5995   -9.1266 C   0  0  0  0  0  0
  -21.9406   24.6398   -7.6800 C   0  0  0  0  0  0
  -21.6307   24.5200   -5.3272 C   0  0  0  0  0  0
  -22.0446   23.2416   -7.7714 C   0  0  0  0  0  0
  -21.7276   25.2348   -6.4780 N   0  0  0  0  0  0
  -21.6813   23.1270   -5.3769 C   0  0  0  0  0  0
  -21.4669   25.1961   -4.0806 N   0  0  0  0  0  0
  -21.7972   22.4900   -6.6126 C   0  0  0  0  0  0
  -21.4386   24.6651   -3.1820 H   0  0  0  0  0  0
  -21.3890   26.2368   -4.0515 H   0  0  0  0  0  0
  1  2  2  0  0  0
  1  3  1  0  0  0
  1  5  1  0  0  0
  2  4  1  0  0  0
  3  6  1  0  0  0
  3  7  1  0  0  0
  4 10  1  0  0  0
  4  7  2  0  0  0
  5  8  2  0  0  0
  5  9  1  0  0  0
  6 19  1  0  0  0
  6  8  1  0  0  0
 10 12  2  0  0  0
 10 16  1  0  0  0
 11 13  2  0  0  0
 11 16  1  0  0  0
 12 13  1  0  0  0
 12 15  1  0  0  0
 13 14  1  0  0  0
 14 17  1  0  0  0
 14 18  1  0  0  0
 19 22  1  0  0  0
 20 22  2  0  0  0
 20 23  1  0  0  0
 21 23  2  0  0  0
 21 24  1  0  0  0
 21 25  1  0  0  0
 22 26  1  0  0  0
 24 26  2  0  0  0
 25 27  1  0  0  0
 25 28  1  0  0  0
M  END
> <s_m_entry_id>
936

> <s_m_entry_name>
10-myco-1_43_lig_gen_fit_add_gna.sdf.10

> <s_m_Source_Path>
C:\Users\maila\Downloads\mgr\myco-analysis

> <s_m_Source_File>
myco-10-var1-wzakresie.mae

> <i_m_Source_File_Index>
83

> <s_user_SMILES>
c1nc(N)ccc1CN(C=C2F)[C@H](C2=3)C=C(C3)C(=C4C)CN=C4N

> <minimizedAffinity>
-9.77744

> <minimizedRMSD>
0.66359

> <CNNscore>
0.7138751745

> <CNNaffinity>
6.4397573471

> <CNN_VS>
4.5971827507

> <CNNaffinity_variance>
0.3336674869

$$$$
[H]\N=C\C=C(N)\N=N/C(=C1)C=C[C@H](C12)C=CC=2Cc3c(=O)[nH]ccc3
                    3D
 Schrodinger Suite 2021-1.
 28 30  0  0  1  0            999 V2000
  -22.5601   21.0060  -11.7973 C   0  0  0  0  0  0
  -22.6760   18.6024  -12.1502 C   0  0  0  0  0  0
  -21.9088   19.8768  -12.0976 C   0  0  0  0  0  0
  -25.0143   19.5429   -9.5675 C   0  0  0  0  0  0
  -24.6321   20.6130   -8.8855 C   0  0  0  0  0  0
  -23.7462   20.8947  -10.9410 C   0  0  0  0  0  0
  -24.6107   19.6747  -10.9942 C   0  0  1  0  0  0
  -23.8048   21.4672   -9.7339 C   0  0  0  0  0  0
  -23.8757   18.4796  -11.5543 C   0  0  0  0  0  0
  -19.5054   19.1559  -12.1006 N   0  0  0  0  0  0
  -20.4828   19.9598  -11.9043 N   0  0  0  0  0  0
  -19.4708   17.8271  -12.6177 C   0  0  0  0  0  0
  -18.3371   17.4819  -13.4274 N   0  0  0  0  0  0
  -20.2608   16.8739  -12.1170 C   0  0  0  0  0  0
  -18.0450   16.5000  -13.6200 H   0  0  0  0  0  0
  -17.6491   18.2217  -13.6818 H   0  0  0  0  0  0
  -20.3124   15.5386  -12.7001 C   0  0  0  0  0  0
  -21.2664   14.7278  -12.4154 N   0  0  0  0  0  0
  -21.2696   13.7614  -12.8111 H   0  0  0  0  0  0
  -23.0021   22.7031   -9.3391 C   0  0  0  0  0  0
  -21.9539   23.3666   -5.2115 C   0  0  0  0  0  0
  -22.2703   24.1852   -7.4194 C   0  0  0  0  0  0
  -22.2167   25.1548   -8.2228 O   0  0  0  0  0  0
  -22.4511   21.8248   -6.9878 C   0  0  0  0  0  0
  -21.9853   24.3911   -6.1025 N   0  0  0  0  0  0
  -22.6142   22.8970   -7.8819 C   0  0  0  0  0  0
  -22.1518   22.0593   -5.6467 C   0  0  0  0  0  0
  -21.7756   25.3560   -5.7618 H   0  0  0  0  0  0
  1  3  2  0  0  0
  1  6  1  0  0  0
  2  3  1  0  0  0
  2  9  2  0  0  0
  3 11  1  0  0  0
  4  5  2  0  0  0
  4  7  1  0  0  0
  5  8  1  0  0  0
  6  7  1  0  0  0
  6  8  2  0  0  0
  7  9  1  0  0  0
  8 20  1  0  0  0
 10 12  1  0  0  0
 10 11  2  0  0  0
 12 13  1  0  0  0
 12 14  2  0  0  0
 13 15  1  0  0  0
 13 16  1  0  0  0
 14 17  1  0  0  0
 17 18  2  0  0  0
 18 19  1  0  0  0
 20 26  1  0  0  0
 21 25  1  0  0  0
 21 27  2  0  0  0
 22 23  2  0  0  0
 22 25  1  0  0  0
 22 26  1  0  0  0
 24 26  2  0  0  0
 24 27  1  0  0  0
 25 28  1  0  0  0
M  END
> <s_m_entry_id>
937

> <s_m_entry_name>
10-myco-1_44_lig_gen_fit_add_gna.sdf.1

> <s_m_Source_Path>
C:\Users\maila\Downloads\mgr\myco-analysis

> <s_m_Source_File>
myco-10-var1-wzakresie.mae

> <i_m_Source_File_Index>
84

> <s_user_SMILES>
[H]\N=C\C=C(N)\N=N/C(=C1)C=C[C@H](C12)C=CC=2Cc3c(=O)[nH]ccc3

> <minimizedAffinity>
-9.59301

> <minimizedRMSD>
0.91897

> <CNNscore>
0.7190833688

> <CNNaffinity>
6.8856840134

> <CNN_VS>
4.9513807297

> <CNNaffinity_variance>
0.2715734243

$$$$
[H]\N=C/C=C\C(C)CC1=CC=C(C1=2)CC2c(c3C)c[nH]c3N
                    3D
 Schrodinger Suite 2021-1.
 25 27  0  0  1  0            999 V2000
  -25.3167   21.3238  -10.2800 C   0  0  0  0  0  0
  -24.8066   19.3074  -11.0236 C   0  0  0  0  0  0
  -24.0182   18.2825  -11.5944 C   0  0  0  0  0  0
  -23.6837   20.1730  -11.2337 C   0  0  0  0  0  0
  -24.0499   21.4745  -10.7441 C   0  0  0  0  0  0
  -25.8101   19.9211  -10.4592 C   0  0  0  0  0  0
  -22.8870   19.1813  -11.7525 C   0  0  0  0  0  0
  -19.4538   18.1605  -12.3913 C   0  0  0  0  0  0
  -20.4836   19.9498  -11.7637 C   0  0  0  0  0  0
  -20.8047   17.8818  -12.4879 C   0  0  0  0  0  0
  -19.2657   19.4041  -11.9387 N   0  0  0  0  0  0
  -21.4336   16.5702  -12.7945 C   0  0  0  0  0  0
  -18.3762   17.2725  -12.6823 N   0  0  0  0  0  0
  -21.4643   19.0388  -12.0992 C   0  0  0  0  0  0
  -18.3457   19.8408  -11.7257 H   0  0  0  0  0  0
  -17.3893   17.5746  -12.5242 H   0  0  0  0  0  0
  -18.5488   16.3459  -13.1162 H   0  0  0  0  0  0
  -23.2409   22.7279  -10.7932 C   0  0  0  0  0  0
  -22.5083   23.1088   -9.5202 C   0  0  3  0  0  0
  -21.5469   24.2670   -9.6364 C   0  0  0  0  0  0
  -22.6368   22.4085   -8.3636 C   0  0  0  0  0  0
  -21.7964   22.6396   -7.1322 C   0  0  0  0  0  0
  -22.1228   23.9483   -6.4759 C   0  0  0  0  0  0
  -21.1984   24.7494   -6.0838 N   0  0  0  0  0  0
  -20.1987   24.5262   -6.1973 H   0  0  0  0  0  0
  1  5  2  0  0  0
  1  6  1  0  0  0
  2  3  1  0  0  0
  2  4  1  0  0  0
  2  6  2  0  0  0
  3  7  1  0  0  0
  4  5  1  0  0  0
  4  7  2  0  0  0
  5 18  1  0  0  0
  7 14  1  0  0  0
  8 10  2  0  0  0
  8 11  1  0  0  0
  8 13  1  0  0  0
  9 11  1  0  0  0
  9 14  2  0  0  0
 10 12  1  0  0  0
 10 14  1  0  0  0
 11 15  1  0  0  0
 13 16  1  0  0  0
 13 17  1  0  0  0
 18 19  1  0  0  0
 19 21  1  0  0  0
 19 20  1  0  0  0
 21 22  2  0  0  0
 22 23  1  0  0  0
 23 24  2  0  0  0
 24 25  1  0  0  0
M  END
> <s_m_entry_id>
938

> <s_m_entry_name>
10-myco-1_44_lig_gen_fit_add_gna.sdf.2

> <s_m_Source_Path>
C:\Users\maila\Downloads\mgr\myco-analysis

> <s_m_Source_File>
myco-10-var1-wzakresie.mae

> <i_m_Source_File_Index>
85

> <s_user_SMILES>
[H]\N=C/C=C\C(C)CC1=CC=C(C1=2)CC2c(c3C)c[nH]c3N

> <minimizedAffinity>
-8.36449

> <minimizedRMSD>
0.55047

> <CNNscore>
0.9110353589

> <CNNaffinity>
6.7450127602

> <CNN_VS>
6.1449451447

> <CNNaffinity_variance>
0.0231041666

$$$$
N1=CC=C[C@H](C1=O)CC=2C=NC(C23)=CC(=C3)c(c4C)n[nH]c4N
                    3D
 Schrodinger Suite 2021-1.
 26 29  0  0  1  0            999 V2000
  -24.2854   19.2135  -11.0448 C   0  0  0  0  0  0
  -22.2852   19.2595  -12.0797 C   0  0  0  0  0  0
  -24.2094   21.2311  -10.1498 C   0  0  0  0  0  0
  -22.6200   20.5460  -11.9456 C   0  0  0  0  0  0
  -23.3594   18.4147  -11.5419 C   0  0  0  0  0  0
  -23.8886   20.5599  -11.2437 C   0  0  0  0  0  0
  -24.8773   19.0637   -9.7653 N   0  0  0  0  0  0
  -24.8355   20.2505   -9.2444 C   0  0  0  0  0  0
  -19.0308   17.6915  -12.3388 C   0  0  0  0  0  0
  -19.8650   19.6392  -11.8941 N   0  0  0  0  0  0
  -20.3954   17.5480  -12.4707 C   0  0  0  0  0  0
  -18.0328   16.7020  -12.5585 N   0  0  0  0  0  0
  -21.1493   16.2676  -12.5778 C   0  0  0  0  0  0
  -18.7474   18.9460  -11.9882 N   0  0  0  0  0  0
  -20.8884   18.8228  -12.2036 C   0  0  0  0  0  0
  -18.2460   15.8496  -13.1075 H   0  0  0  0  0  0
  -17.0374   16.9182  -12.3400 H   0  0  0  0  0  0
  -17.8058   19.3178  -11.7738 H   0  0  0  0  0  0
  -23.7593   22.6222   -9.8040 C   0  0  0  0  0  0
  -21.7724   24.0404   -9.1778 C   0  0  0  0  0  0
  -21.6098   24.5945  -10.2975 O   0  0  0  0  0  0
  -22.5064   22.1713   -7.6734 C   0  0  0  0  0  0
  -22.0089   22.8495   -6.6364 C   0  0  0  0  0  0
  -22.3851   22.6564   -9.1017 C   0  0  1  0  0  0
  -21.3109   24.7081   -7.9985 N   0  0  0  0  0  0
  -21.4017   24.1737   -6.8209 C   0  0  0  0  0  0
  1  5  2  0  0  0
  1  6  1  0  0  0
  1  7  1  0  0  0
  2  4  2  0  0  0
  2  5  1  0  0  0
  2 15  1  0  0  0
  3 19  1  0  0  0
  3  6  2  0  0  0
  3  8  1  0  0  0
  4  6  1  0  0  0
  7  8  2  0  0  0
  9 11  2  0  0  0
  9 12  1  0  0  0
  9 14  1  0  0  0
 10 14  1  0  0  0
 10 15  2  0  0  0
 11 13  1  0  0  0
 11 15  1  0  0  0
 12 16  1  0  0  0
 12 17  1  0  0  0
 14 18  1  0  0  0
 19 24  1  0  0  0
 20 21  2  0  0  0
 20 24  1  0  0  0
 20 25  1  0  0  0
 22 23  2  0  0  0
 22 24  1  0  0  0
 23 26  1  0  0  0
 25 26  2  0  0  0
M  END
> <s_m_entry_id>
939

> <s_m_entry_name>
10-myco-1_44_lig_gen_fit_add_gna.sdf.3

> <s_m_Source_Path>
C:\Users\maila\Downloads\mgr\myco-analysis

> <s_m_Source_File>
myco-10-var1-wzakresie.mae

> <i_m_Source_File_Index>
86

> <s_user_SMILES>
N1=CC=C[C@H](C1=O)CC=2C=NC(C23)=CC(=C3)c(c4C)n[nH]c4N

> <minimizedAffinity>
-9.88871

> <minimizedRMSD>
0.63176

> <CNNscore>
0.9057488441

> <CNNaffinity>
6.9052934647

> <CNN_VS>
6.2544617653

> <CNNaffinity_variance>
0.1381444186

$$$$
N#Cc1c(N)nc(c12)c2C3=C(C)CC=C3Cc4c(=O)[nH]ccc4
                    3D
 Schrodinger Suite 2021-1.
 26 29  0  0  1  0            999 V2000
  -24.9706   20.0860  -10.9636 C   0  0  0  0  0  0
  -23.8030   20.6736  -11.2256 C   0  0  0  0  0  0
  -25.2220   18.6244  -10.9554 C   0  0  0  0  0  0
  -23.8765   22.0399  -10.6948 C   0  0  0  0  0  0
  -25.0844   22.2469  -10.1927 C   0  0  0  0  0  0
  -25.8999   21.0187  -10.2622 C   0  0  0  0  0  0
  -21.9226   18.8188  -12.0419 C   0  0  0  0  0  0
  -21.0967   17.8450  -12.4257 C   0  0  0  0  0  0
  -19.8343   18.5927  -12.2827 C   0  0  0  0  0  0
  -19.9044   19.9460  -11.8774 N   0  0  0  0  0  0
  -18.5723   17.9544  -12.4752 N   0  0  0  0  0  0
  -22.5744   19.9643  -11.6479 C   0  0  0  0  0  0
  -21.2133   19.9394  -11.7702 C   0  0  0  0  0  0
  -17.6870   18.4576  -12.2602 H   0  0  0  0  0  0
  -18.5159   16.9705  -12.8164 H   0  0  0  0  0  0
  -21.3515   15.2737  -12.3869 N   0  0  0  0  0  0
  -21.2533   16.4235  -12.4295 C   0  0  0  0  0  0
  -22.7881   23.0764  -10.6699 C   0  0  0  0  0  0
  -21.5193   24.2640   -6.7263 C   0  0  0  0  0  0
  -22.0133   22.9771   -6.9194 C   0  0  0  0  0  0
  -21.8237   24.7719   -9.0293 C   0  0  0  0  0  0
  -21.4303   25.1267   -7.7733 N   0  0  0  0  0  0
  -21.7022   25.6012   -9.9718 O   0  0  0  0  0  0
  -22.3631   23.4895   -9.2690 C   0  0  0  0  0  0
  -22.4400   22.5922   -8.1880 C   0  0  0  0  0  0
  -21.0457   26.0837   -7.6043 H   0  0  0  0  0  0
  1  2  2  0  0  0
  1  3  1  0  0  0
  1  6  1  0  0  0
  2  4  1  0  0  0
  2 12  1  0  0  0
  4  5  2  0  0  0
  4 18  1  0  0  0
  5  6  1  0  0  0
  7  8  2  0  0  0
  7 12  1  0  0  0
  7 13  1  0  0  0
  8  9  1  0  0  0
  8 17  1  0  0  0
  9 10  2  0  0  0
  9 11  1  0  0  0
 10 13  1  0  0  0
 11 14  1  0  0  0
 11 15  1  0  0  0
 12 13  2  0  0  0
 16 17  3  0  0  0
 18 24  1  0  0  0
 19 20  2  0  0  0
 19 22  1  0  0  0
 20 25  1  0  0  0
 21 22  1  0  0  0
 21 23  2  0  0  0
 21 24  1  0  0  0
 22 26  1  0  0  0
 24 25  2  0  0  0
M  END
> <s_m_entry_id>
940

> <s_m_entry_name>
10-myco-1_44_lig_gen_fit_add_gna.sdf.4

> <s_m_Source_Path>
C:\Users\maila\Downloads\mgr\myco-analysis

> <s_m_Source_File>
myco-10-var1-wzakresie.mae

> <i_m_Source_File_Index>
87

> <s_user_SMILES>
N#Cc1c(N)nc(c12)c2C3=C(C)CC=C3Cc4c(=O)[nH]ccc4

> <minimizedAffinity>
-9.17938

> <minimizedRMSD>
0.60556

> <CNNscore>
0.9482060671

> <CNNaffinity>
6.9076814651

> <CNN_VS>
6.5499053001

> <CNNaffinity_variance>
0.1067915559

$$$$
CC=1C=Nc(c12)cc=3c(c2)C=CC3NC4=CC=NC4=O
                    3D
 Schrodinger Suite 2021-1.
 21 24  0  0  1  0            999 V2000
  -19.4494   18.9727  -12.3402 N   0  0  0  0  0  0
  -23.6787   21.2132  -11.0888 C   0  0  0  0  0  0
  -22.8994   17.8793  -11.9580 C   0  0  0  0  0  0
  -19.3261   17.6970  -12.5237 C   0  0  0  0  0  0
  -23.5430   19.0755  -11.6132 C   0  0  0  0  0  0
  -20.6310   17.0330  -12.4822 C   0  0  0  0  0  0
  -24.8792   19.2901  -11.0684 C   0  0  0  0  0  0
  -20.8498   19.1793  -12.1926 C   0  0  0  0  0  0
  -22.8689   20.2879  -11.5784 C   0  0  0  0  0  0
  -21.4974   20.3812  -11.8695 C   0  0  0  0  0  0
  -24.9564   20.5794  -10.7387 C   0  0  0  0  0  0
  -20.8619   15.5701  -12.5225 C   0  0  0  0  0  0
  -21.5270   17.9774  -12.2474 C   0  0  0  0  0  0
  -23.2994   22.5552  -10.7776 N   0  0  0  0  0  0
  -23.2268   23.2421  -11.5605 H   0  0  0  0  0  0
  -22.7824   22.9196   -9.4925 C   0  0  0  0  0  0
  -22.1252   22.9595   -7.3471 C   0  0  0  0  0  0
  -21.8874   24.0188   -9.2082 C   0  0  0  0  0  0
  -21.4826   24.8780  -10.0342 O   0  0  0  0  0  0
  -22.9351   22.2589   -8.3545 C   0  0  0  0  0  0
  -21.5116   23.9905   -7.8399 N   0  0  0  0  0  0
  1  4  2  0  0  0
  1  8  1  0  0  0
  2 14  1  0  0  0
  2  9  2  0  0  0
  2 11  1  0  0  0
  3  5  2  0  0  0
  3 13  1  0  0  0
  4  6  1  0  0  0
  5  7  1  0  0  0
  5  9  1  0  0  0
  6 12  1  0  0  0
  6 13  2  0  0  0
  7 11  2  0  0  0
  8 10  2  0  0  0
  8 13  1  0  0  0
  9 10  1  0  0  0
 14 16  1  0  0  0
 14 15  1  0  0  0
 16 18  1  0  0  0
 16 20  2  0  0  0
 17 20  1  0  0  0
 17 21  2  0  0  0
 18 19  2  0  0  0
 18 21  1  0  0  0
M  END
> <s_m_entry_id>
941

> <s_m_entry_name>
10-myco-1_44_lig_gen_fit_add_gna.sdf.6

> <s_m_Source_Path>
C:\Users\maila\Downloads\mgr\myco-analysis

> <s_m_Source_File>
myco-10-var1-wzakresie.mae

> <i_m_Source_File_Index>
88

> <s_user_SMILES>
CC=1C=Nc(c12)cc=3c(c2)C=CC3NC4=CC=NC4=O

> <minimizedAffinity>
-9.77578

> <minimizedRMSD>
0.65218

> <CNNscore>
0.9620952606

> <CNNaffinity>
6.2974319458

> <CNN_VS>
6.0587296486

> <CNNaffinity_variance>
0.2345258445

$$$$
N1=CC=C[C@@H](C1=O)CC2C=CC(C=23)=C[C@@H]3C4=NC(N)=C4C
                    3D
 Schrodinger Suite 2021-1.
 23 26  0  0  1  0            999 V2000
  -23.8616   18.6796  -11.6722 C   0  0  0  0  0  0
  -23.1270   17.7388  -12.3123 C   0  0  0  0  0  0
  -22.0450   18.7122  -12.4571 C   0  0  1  0  0  0
  -22.8313   19.6775  -11.6941 C   0  0  0  0  0  0
  -23.2507   20.7487  -11.0482 C   0  0  0  0  0  0
  -24.6677   20.4253  -10.6345 C   0  0  0  0  0  0
  -25.0281   19.1731  -10.9984 C   0  0  0  0  0  0
  -18.0442   17.6566  -13.4951 N   0  0  0  0  0  0
  -20.3500   17.1655  -12.5759 C   0  0  0  0  0  0
  -19.9826   19.0408  -12.3302 N   0  0  0  0  0  0
  -19.2854   17.8972  -12.8447 C   0  0  0  0  0  0
  -20.6922   15.7350  -12.7451 C   0  0  0  0  0  0
  -20.7801   18.2417  -11.6937 C   0  0  0  0  0  0
  -17.3686   18.4323  -13.6334 H   0  0  0  0  0  0
  -17.7902   16.6934  -13.8025 H   0  0  0  0  0  0
  -22.5343   22.0522  -10.9042 C   0  0  0  0  0  0
  -22.8688   22.2349   -8.3990 C   0  0  0  0  0  0
  -23.0500   22.9174   -9.7377 C   0  0  1  0  0  0
  -22.1711   22.7815   -7.3999 C   0  0  0  0  0  0
  -21.6265   24.7589   -8.6629 N   0  0  0  0  0  0
  -22.5298   25.0165  -10.7870 O   0  0  0  0  0  0
  -22.3923   24.2807   -9.7738 C   0  0  0  0  0  0
  -21.5090   24.0827   -7.5626 C   0  0  0  0  0  0
  1  2  2  0  0  0
  1  4  1  0  0  0
  1  7  1  0  0  0
  2  3  1  0  0  0
  3  4  1  0  0  0
  3 13  1  0  0  0
  4  5  2  0  0  0
  5  6  1  0  0  0
  5 16  1  0  0  0
  6  7  2  0  0  0
  8 11  1  0  0  0
  8 14  1  0  0  0
  8 15  1  0  0  0
  9 11  2  0  0  0
  9 12  1  0  0  0
  9 13  1  0  0  0
 10 11  1  0  0  0
 10 13  2  0  0  0
 16 18  1  0  0  0
 17 18  1  0  0  0
 17 19  2  0  0  0
 18 22  1  0  0  0
 19 23  1  0  0  0
 20 22  1  0  0  0
 20 23  2  0  0  0
 21 22  2  0  0  0
M  END
> <s_m_entry_id>
942

> <s_m_entry_name>
10-myco-1_44_lig_gen_fit_add_gna.sdf.7

> <s_m_Source_Path>
C:\Users\maila\Downloads\mgr\myco-analysis

> <s_m_Source_File>
myco-10-var1-wzakresie.mae

> <i_m_Source_File_Index>
89

> <s_user_SMILES>
N1=CC=C[C@@H](C1=O)CC2C=CC(C=23)=C[C@@H]3C4=NC(N)=C4C

> <minimizedAffinity>
-8.68791

> <minimizedRMSD>
0.47612

> <CNNscore>
0.7220639586

> <CNNaffinity>
6.5670366287

> <CNN_VS>
4.7418203354

> <CNNaffinity_variance>
0.0287510809

$$$$
CC1C(N)=NC2=C([C]=123)C=4C(=C3)C=CC4NC(C5=O)C=CC=N5
                    3D
 Schrodinger Suite 2021-1.
 25 29  0  0  1  0            999 V2000
  -23.4655   19.2177  -11.9665 C   0  0  0  0  0  0
  -17.9472   17.0033  -13.4116 N   0  0  0  0  0  0
  -22.6331   20.3801  -11.9510 C   0  0  0  0  0  0
  -20.5056   17.2127  -12.8031 C   0  0  0  0  0  0
  -23.0586   21.1802  -10.9853 C   0  0  0  0  0  0
  -24.3441   20.6495  -10.4849 C   0  0  0  0  0  0
  -21.2585   18.1894  -11.8640 C   0  0  0  0  0  0
  -22.7799   18.0578  -12.0266 C   0  0  0  0  0  0
  -24.5900   19.4837  -11.0793 C   0  0  0  0  0  0
  -19.0395   17.7498  -12.8850 C   0  0  0  0  0  0
  -18.8578   18.9642  -12.4765 N   0  0  0  0  0  0
  -21.4644   19.5851  -11.9917 C   0  0  0  0  0  0
  -20.1927   19.0608  -12.1371 C   0  0  0  0  0  0
  -20.5433   15.8004  -12.2537 C   0  0  0  0  0  0
  -17.0068   17.4431  -13.5191 H   0  0  0  0  0  0
  -18.0461   15.9933  -13.6098 H   0  0  0  0  0  0
  -22.2050   22.0916  -10.2797 N   0  0  0  0  0  0
  -21.1775   22.0708  -10.4764 H   0  0  0  0  0  0
  -21.8843   22.9960   -6.8885 C   0  0  0  0  0  0
  -22.5071   22.3655   -7.8871 C   0  0  0  0  0  0
  -22.0216   24.3353   -9.3624 C   0  0  0  0  0  0
  -22.7039   22.9938   -9.2439 C   0  0  0  0  0  0
  -22.0336   24.9487  -10.4624 O   0  0  0  0  0  0
  -21.3892   24.9384   -8.2291 N   0  0  0  0  0  0
  -21.3220   24.3415   -7.0794 C   0  0  0  0  0  0
  1  3  1  0  0  0
  1  8  2  0  0  0
  1  9  1  0  0  0
  2 10  1  0  0  0
  2 15  1  0  0  0
  2 16  1  0  0  0
  3  5  2  0  0  0
  3 12  1  0  0  0
  4  7  2  0  0  0
  4 10  1  0  0  0
  4 14  1  0  0  0
  5  6  1  0  0  0
  5 17  1  0  0  0
  6  9  2  0  0  0
  7  8  1  0  0  0
  7 12  1  0  0  0
  7 13  1  0  0  0
 10 11  2  0  0  0
 11 13  1  0  0  0
 12 13  2  0  0  0
 17 22  1  0  0  0
 17 18  1  0  0  0
 19 20  2  0  0  0
 19 25  1  0  0  0
 20 22  1  0  0  0
 21 22  1  0  0  0
 21 23  2  0  0  0
 21 24  1  0  0  0
 24 25  2  0  0  0
M  END
> <s_m_entry_id>
943

> <s_m_entry_name>
10-myco-1_44_lig_gen_fit_add_gna.sdf.9

> <s_m_Source_Path>
C:\Users\maila\Downloads\mgr\myco-analysis

> <s_m_Source_File>
myco-10-var1-wzakresie.mae

> <i_m_Source_File_Index>
90

> <s_user_SMILES>
CC1C(N)=NC2=C([C]=123)C=4C(=C3)C=CC4NC(C5=O)C=CC=N5

> <minimizedAffinity>
-9.90839

> <minimizedRMSD>
0.45055

> <CNNscore>
0.8558333516

> <CNNaffinity>
6.6212816238

> <CNN_VS>
5.6667137146

> <CNNaffinity_variance>
0.0349494442

$$$$
[H]\N=C\C=1C(N)=Nc(c12)cc3c(c2)C=CC=3C[C@H]4CCNC4
                    3D
 Schrodinger Suite 2021-1.
 25 28  0  0  1  0            999 V2000
  -20.6313   17.2136  -12.2705 C   0  0  0  0  0  0
  -24.9228   20.6784  -10.4526 C   0  0  0  0  0  0
  -21.4792   20.5195  -11.6083 C   0  0  0  0  0  0
  -22.8486   18.0784  -11.7732 C   0  0  0  0  0  0
  -23.6232   21.3185  -10.7134 C   0  0  0  0  0  0
  -23.4779   19.2069  -11.2954 C   0  0  0  0  0  0
  -21.4115   18.2118  -12.0990 C   0  0  0  0  0  0
  -24.8343   19.3983  -10.8056 C   0  0  0  0  0  0
  -19.2384   17.6505  -12.5262 C   0  0  0  0  0  0
  -20.4273   18.0610  -12.1003 N   0  0  0  0  0  0
  -22.8044   20.3866  -11.1840 C   0  0  0  0  0  0
  -20.7598   19.4850  -12.2476 C   0  0  0  0  0  0
  -18.3041   16.8556  -11.7999 N   0  0  0  0  0  0
  -18.6066   16.2396  -11.0146 H   0  0  0  0  0  0
  -17.3028   16.8521  -12.0922 H   0  0  0  0  0  0
  -21.1072   15.7311  -12.2989 C   0  0  0  0  0  0
  -20.6816   14.7581  -13.0847 N   0  0  0  0  0  0
  -21.0446   13.6940  -12.9828 H   0  0  0  0  0  0
  -23.3352   22.7886  -10.6251 C   0  0  0  0  0  0
  -22.9211   22.5908   -8.1088 C   0  0  0  0  0  0
  -22.4181   23.1324   -9.4380 C   0  0  2  0  0  0
  -22.0246   24.7404   -7.7177 C   0  0  0  0  0  0
  -22.3248   24.6242   -9.2011 C   0  0  0  0  0  0
  -22.4867   23.5157   -7.0593 N   0  0  1  0  0  0
  -23.3001   23.7431   -6.4416 H   0  0  0  0  0  0
  1  7  2  0  0  0
  1  9  1  0  0  0
  1 16  1  0  0  0
  2  5  1  0  0  0
  2  8  2  0  0  0
  3 11  1  0  0  0
  3 12  2  0  0  0
  4  6  2  0  0  0
  4  7  1  0  0  0
  5 19  1  0  0  0
  5 11  2  0  0  0
  6  8  1  0  0  0
  6 11  1  0  0  0
  7 12  1  0  0  0
  9 10  2  0  0  0
  9 13  1  0  0  0
 10 12  1  0  0  0
 13 14  1  0  0  0
 13 15  1  0  0  0
 16 17  2  0  0  0
 17 18  1  0  0  0
 19 21  1  0  0  0
 20 21  1  0  0  0
 20 24  1  0  0  0
 21 23  1  0  0  0
 22 23  1  0  0  0
 22 24  1  0  0  0
 24 25  1  0  0  0
M  END
> <s_m_entry_id>
944

> <s_m_entry_name>
10-myco-1_45_lig_gen_fit_add_gna.sdf.3

> <s_m_Source_Path>
C:\Users\maila\Downloads\mgr\myco-analysis

> <s_m_Source_File>
myco-10-var1-wzakresie.mae

> <i_m_Source_File_Index>
91

> <s_user_SMILES>
[H]\N=C\C=1C(N)=Nc(c12)cc3c(c2)C=CC=3C[C@H]4CCNC4

> <minimizedAffinity>
-10.01488

> <minimizedRMSD>
0.46603

> <CNNscore>
0.8747054935

> <CNNaffinity>
6.6131639481

> <CNN_VS>
5.784570694

> <CNNaffinity_variance>
0.1684479713

$$$$
CC1=C(N)N=N[C@H]1C(C2)=CCC(C=23)=CC=C3NC4=CC=CN(C)C4
                    3D
 Schrodinger Suite 2021-1.
 27 30  0  0  1  0            999 V2000
  -23.3063   20.8941  -11.2292 C   0  0  0  0  0  0
  -24.3679   19.9856  -10.9040 C   0  0  0  0  0  0
  -22.9171   18.1468  -11.6847 C   0  0  0  0  0  0
  -23.7267   22.1813  -10.7046 C   0  0  0  0  0  0
  -21.9020   19.0238  -11.9161 C   0  0  0  0  0  0
  -25.3324   20.6305  -10.2716 C   0  0  0  0  0  0
  -24.9257   22.0292  -10.1440 C   0  0  0  0  0  0
  -22.1550   20.4939  -11.7628 C   0  0  0  0  0  0
  -24.3074   18.5450  -11.2309 C   0  0  0  0  0  0
  -20.0123   17.3162  -12.4842 C   0  0  0  0  0  0
  -19.4615   19.5103  -12.0444 N   0  0  0  0  0  0
  -18.7773   17.6212  -12.8888 C   0  0  0  0  0  0
  -17.7520   16.6974  -13.2289 N   0  0  0  0  0  0
  -18.4899   18.9821  -12.6591 N   0  0  0  0  0  0
  -20.5364   15.9496  -12.1856 C   0  0  0  0  0  0
  -20.4760   18.5153  -11.7442 C   0  0  1  0  0  0
  -17.8225   15.7055  -12.9468 H   0  0  0  0  0  0
  -16.8151   17.0557  -13.5112 H   0  0  0  0  0  0
  -23.0463   23.4240  -10.8882 N   0  0  0  0  0  0
  -22.9359   23.7575  -11.8689 H   0  0  0  0  0  0
  -22.6143   23.7344   -8.3784 C   0  0  0  0  0  0
  -21.5384   25.1224  -10.1387 C   0  0  0  0  0  0
  -22.4062   24.1497   -9.8237 C   0  0  0  0  0  0
  -20.8119   25.8739   -9.1103 C   0  0  0  0  0  0
  -22.2646   24.4954   -5.9852 C   0  0  0  0  0  0
  -21.9915   24.6543   -7.4122 N   0  0  0  0  0  0
  -21.0374   25.6456   -7.8211 C   0  0  0  0  0  0
  1  2  1  0  0  0
  1  4  1  0  0  0
  1  8  2  0  0  0
  2  6  2  0  0  0
  2  9  1  0  0  0
  3  5  2  0  0  0
  3  9  1  0  0  0
  4  7  2  0  0  0
  4 19  1  0  0  0
  5  8  1  0  0  0
  5 16  1  0  0  0
  6  7  1  0  0  0
 10 12  2  0  0  0
 10 15  1  0  0  0
 10 16  1  0  0  0
 11 14  2  0  0  0
 11 16  1  0  0  0
 12 13  1  0  0  0
 12 14  1  0  0  0
 13 17  1  0  0  0
 13 18  1  0  0  0
 19 23  1  0  0  0
 19 20  1  0  0  0
 21 23  1  0  0  0
 21 26  1  0  0  0
 22 23  2  0  0  0
 22 24  1  0  0  0
 24 27  2  0  0  0
 25 26  1  0  0  0
 26 27  1  0  0  0
M  END
> <s_m_entry_id>
945

> <s_m_entry_name>
10-myco-1_45_lig_gen_fit_add_gna.sdf.5

> <s_m_Source_Path>
C:\Users\maila\Downloads\mgr\myco-analysis

> <s_m_Source_File>
myco-10-var1-wzakresie.mae

> <i_m_Source_File_Index>
92

> <s_user_SMILES>
CC1=C(N)N=N[C@H]1C(C2)=CCC(C=23)=CC=C3NC4=CC=CN(C)C4

> <minimizedAffinity>
-10.40949

> <minimizedRMSD>
0.35051

> <CNNscore>
0.9929744601

> <CNNaffinity>
7.5714139938

> <CNN_VS>
7.5182209015

> <CNNaffinity_variance>
0.0692237616

$$$$
C1NCC[C@@H]1CC2CC=C(C=23)C=C3c4nnc(N)c(c45)c\5=N\[H]
                    3D
 Schrodinger Suite 2021-1.
 26 30  0  0  1  0            999 V2000
  -24.8272   19.4269  -10.6378 C   0  0  0  0  0  0
  -23.5521   21.2180  -10.2012 C   0  0  0  0  0  0
  -23.6297   20.0625  -10.8059 C   0  0  0  0  0  0
  -23.1502   18.9451  -11.6070 C   0  0  0  0  0  0
  -25.6586   20.0957   -9.8802 C   0  0  0  0  0  0
  -24.9237   21.3989   -9.5356 C   0  0  0  0  0  0
  -24.3369   18.3254  -11.4653 C   0  0  0  0  0  0
  -19.0223   17.8633  -12.0470 C   0  0  0  0  0  0
  -20.0340   16.9963  -12.1297 C   0  0  0  0  0  0
  -21.8137   18.5809  -12.0617 C   0  0  0  0  0  0
  -19.4589   19.1701  -11.9672 N   0  0  0  0  0  0
  -17.7075   17.4525  -11.7167 N   0  0  0  0  0  0
  -21.3423   17.3032  -12.1358 C   0  0  0  0  0  0
  -20.7829   19.5086  -11.9802 N   0  0  0  0  0  0
  -21.1523   14.7369  -12.2691 N   0  0  0  0  0  0
  -20.9421   15.9984  -12.2065 C   0  0  0  0  0  0
  -17.0784   18.0685  -11.1568 H   0  0  0  0  0  0
  -17.4576   16.4540  -11.8489 H   0  0  0  0  0  0
  -22.0919   14.3374  -12.2887 H   0  0  0  0  0  0
  -22.4487   22.2111  -10.3951 C   0  0  0  0  0  0
  -22.5937   23.2947   -8.0815 C   0  0  0  0  0  0
  -21.5177   24.5049   -9.8221 C   0  0  0  0  0  0
  -22.6304   23.4972   -9.5795 C   0  0  1  0  0  0
  -22.1078   24.6336   -7.5451 C   0  0  0  0  0  0
  -21.4349   25.3516   -8.6320 N   0  0  1  0  0  0
  -20.4262   25.4845   -8.3825 H   0  0  0  0  0  0
  1  3  1  0  0  0
  1  5  2  0  0  0
  1  7  1  0  0  0
  2  3  2  0  0  0
  2  6  1  0  0  0
  2 20  1  0  0  0
  3  4  1  0  0  0
  4 10  1  0  0  0
  4  7  2  0  0  0
  5  6  1  0  0  0
  8  9  2  0  0  0
  8 11  1  0  0  0
  8 12  1  0  0  0
  9 13  1  0  0  0
  9 16  1  0  0  0
 10 13  2  0  0  0
 10 14  1  0  0  0
 11 14  2  0  0  0
 12 17  1  0  0  0
 12 18  1  0  0  0
 13 16  1  0  0  0
 15 16  2  0  0  0
 15 19  1  0  0  0
 20 23  1  0  0  0
 21 23  1  0  0  0
 21 24  1  0  0  0
 22 23  1  0  0  0
 22 25  1  0  0  0
 24 25  1  0  0  0
 25 26  1  0  0  0
M  END
> <s_m_entry_id>
946

> <s_m_entry_name>
10-myco-1_45_lig_gen_fit_add_gna.sdf.7

> <s_m_Source_Path>
C:\Users\maila\Downloads\mgr\myco-analysis

> <s_m_Source_File>
myco-10-var1-wzakresie.mae

> <i_m_Source_File_Index>
93

> <s_user_SMILES>
C1NCC[C@@H]1CC2CC=C(C=23)C=C3c4nnc(N)c(c45)c\5=N\[H]

> <minimizedAffinity>
-10.18228

> <minimizedRMSD>
0.44813

> <CNNscore>
0.979363203

> <CNNaffinity>
7.0935525894

> <CNN_VS>
6.9471645355

> <CNNaffinity_variance>
0.1349203587

$$$$
N[C@H]1N=NC(=C1C)C(=C2)C=C(C2=3)C=CC3NC4CCNCC4
                    3D
 Schrodinger Suite 2021-1.
 26 29  0  0  1  0            999 V2000
  -24.0838   19.7780  -10.9119 C   0  0  0  0  0  0
  -23.3477   18.8167  -11.4276 C   0  0  0  0  0  0
  -25.5012   21.3032  -10.1507 C   0  0  0  0  0  0
  -24.2170   21.9566  -10.5062 C   0  0  0  0  0  0
  -25.4168   19.9840  -10.3837 C   0  0  0  0  0  0
  -23.4212   21.0047  -10.9602 C   0  0  0  0  0  0
  -22.0631   19.4686  -11.8253 C   0  0  0  0  0  0
  -22.1366   20.7925  -11.5926 C   0  0  0  0  0  0
  -20.5287   17.5077  -12.2818 C   0  0  0  0  0  0
  -18.5666   18.6555  -11.9733 N   0  0  0  0  0  0
  -20.7655   18.7956  -12.0556 C   0  0  0  0  0  0
  -19.0500   17.3086  -12.2324 C   0  0  2  0  0  0
  -18.5308   16.8096  -13.4998 N   0  0  0  0  0  0
  -21.5242   16.4064  -12.3885 C   0  0  0  0  0  0
  -19.5318   19.4720  -11.8769 N   0  0  0  0  0  0
  -17.5082   16.6336  -13.3784 H   0  0  0  0  0  0
  -18.6137   17.5600  -14.2206 H   0  0  0  0  0  0
  -24.0284   23.3663  -10.6634 N   0  0  0  0  0  0
  -24.8900   23.9294  -10.8301 H   0  0  0  0  0  0
  -22.2672   23.9423   -9.0425 C   0  0  0  0  0  0
  -21.9486   26.4455  -10.1230 C   0  0  0  0  0  0
  -20.6904   25.8115   -9.7182 N   0  0  1  0  0  0
  -22.7281   24.0279  -10.5043 C   0  0  0  0  0  0
  -20.9043   24.6407   -8.8443 C   0  0  0  0  0  0
  -22.7811   25.4984  -10.9992 C   0  0  0  0  0  0
  -20.1862   25.5040  -10.5827 H   0  0  0  0  0  0
  1  2  2  0  0  0
  1  5  1  0  0  0
  1  6  1  0  0  0
  2  7  1  0  0  0
  3  4  1  0  0  0
  3  5  2  0  0  0
  4  6  2  0  0  0
  4 18  1  0  0  0
  6  8  1  0  0  0
  7 11  1  0  0  0
  7  8  2  0  0  0
  9 11  2  0  0  0
  9 12  1  0  0  0
  9 14  1  0  0  0
 10 12  1  0  0  0
 10 15  2  0  0  0
 11 15  1  0  0  0
 12 13  1  0  0  0
 13 16  1  0  0  0
 13 17  1  0  0  0
 18 23  1  0  0  0
 18 19  1  0  0  0
 20 23  1  0  0  0
 20 24  1  0  0  0
 21 22  1  0  0  0
 21 25  1  0  0  0
 22 24  1  0  0  0
 22 26  1  0  0  0
 23 25  1  0  0  0
M  END
> <s_m_entry_id>
947

> <s_m_entry_name>
10-myco-1_45_lig_gen_fit_add_gna.sdf.8

> <s_m_Source_Path>
C:\Users\maila\Downloads\mgr\myco-analysis

> <s_m_Source_File>
myco-10-var1-wzakresie.mae

> <i_m_Source_File_Index>
94

> <s_user_SMILES>
N[C@H]1N=NC(=C1C)C(=C2)C=C(C2=3)C=CC3NC4CCNCC4

> <minimizedAffinity>
-9.7393

> <minimizedRMSD>
0.35545

> <CNNscore>
0.9549790621

> <CNNaffinity>
7.0054039955

> <CNN_VS>
6.6900143623

> <CNNaffinity_variance>
0.2490234822

$$$$
CN(C1)CC[C@@H]1CN(C=C2)[C@@H](C2=3)C=C(C3)c4ccc(N)nn4
                    3D
 Schrodinger Suite 2021-1.
 24 27  0  0  1  0            999 V2000
  -24.1756   20.0563  -10.3409 C   0  0  0  0  0  0
  -22.4065   19.6147  -11.6591 C   0  0  0  0  0  0
  -25.3144   21.9864  -10.4236 C   0  0  0  0  0  0
  -22.1905   20.8306  -11.1659 C   0  0  0  0  0  0
  -23.9369   22.3507  -10.2971 N   0  0  0  0  0  0
  -23.7167   19.1446  -11.1959 C   0  0  0  0  0  0
  -25.4908   20.6686  -10.4096 C   0  0  0  0  0  0
  -23.1852   21.1242  -10.1079 C   0  0  1  0  0  0
  -21.2746   18.7958  -12.1376 C   0  0  0  0  0  0
  -18.9495   17.4413  -12.7584 C   0  0  0  0  0  0
  -21.3254   17.4046  -12.2928 C   0  0  0  0  0  0
  -20.0768   19.4186  -12.2690 N   0  0  0  0  0  0
  -17.7238   16.8162  -13.1095 N   0  0  0  0  0  0
  -20.1429   16.7173  -12.6044 C   0  0  0  0  0  0
  -18.9595   18.7761  -12.5788 N   0  0  0  0  0  0
  -17.6452   15.7907  -13.1532 H   0  0  0  0  0  0
  -16.8762   17.3914  -13.3064 H   0  0  0  0  0  0
  -23.3434   23.6242  -10.7173 C   0  0  0  0  0  0
  -22.2325   24.0824   -8.4319 C   0  0  0  0  0  0
  -21.4296   25.2704  -10.3224 C   0  0  0  0  0  0
  -20.7162   25.7489   -9.0570 C   0  0  0  0  0  0
  -21.0297   24.7875   -7.9877 N   0  0  1  0  0  0
  -21.2172   25.4364   -6.6857 C   0  0  0  0  0  0
  -22.0556   23.9448   -9.9299 C   0  0  2  0  0  0
  1  6  2  0  0  0
  1  7  1  0  0  0
  1  8  1  0  0  0
  2  9  1  0  0  0
  2  4  2  0  0  0
  2  6  1  0  0  0
  3  5  1  0  0  0
  3  7  2  0  0  0
  4  8  1  0  0  0
  5 18  1  0  0  0
  5  8  1  0  0  0
  9 11  2  0  0  0
  9 12  1  0  0  0
 10 13  1  0  0  0
 10 14  2  0  0  0
 10 15  1  0  0  0
 11 14  1  0  0  0
 12 15  2  0  0  0
 13 16  1  0  0  0
 13 17  1  0  0  0
 18 24  1  0  0  0
 19 22  1  0  0  0
 19 24  1  0  0  0
 20 21  1  0  0  0
 20 24  1  0  0  0
 21 22  1  0  0  0
 22 23  1  0  0  0
M  END
> <s_m_entry_id>
948

> <s_m_entry_name>
10-myco-1_45_lig_gen_fit_add_gna.sdf.10

> <s_m_Source_Path>
C:\Users\maila\Downloads\mgr\myco-analysis

> <s_m_Source_File>
myco-10-var1-wzakresie.mae

> <i_m_Source_File_Index>
95

> <s_user_SMILES>
CN(C1)CC[C@@H]1CN(C=C2)[C@@H](C2=3)C=C(C3)c4ccc(N)nn4

> <minimizedAffinity>
-9.05177

> <minimizedRMSD>
0.27045

> <CNNscore>
0.9867108464

> <CNNaffinity>
6.9347276688

> <CNN_VS>
6.8425707817

> <CNNaffinity_variance>
0.0851842239

$$$$
CC1C(N)=NC2=[C]3([C]=124)C4=Cc5c3c(ccc5)NC6CCCN6C
                    3D
 Schrodinger Suite 2021-1.
 26 31  0  0  1  0            999 V2000
  -19.6969   19.6031  -12.4041 N   0  0  0  0  0  0
  -23.0707   20.3503  -11.2331 C   0  0  0  0  0  0
  -23.0732   18.4135  -11.9285 C   0  0  0  0  0  0
  -24.1510   22.3670  -10.5381 C   0  0  0  0  0  0
  -20.6501   17.4959  -12.1009 C   0  0  0  0  0  0
  -18.1206   17.9018  -11.8773 N   0  0  0  0  0  0
  -24.2739   19.6497  -10.9931 C   0  0  0  0  0  0
  -19.4399   18.3647  -12.1460 C   0  0  0  0  0  0
  -21.7474   18.4349  -12.6416 C   0  0  0  0  0  0
  -22.9585   21.6965  -10.8279 C   0  0  0  0  0  0
  -25.3712   20.2855  -10.4710 C   0  0  0  0  0  0
  -21.9780   19.3906  -11.5759 C   0  0  0  0  0  0
  -21.1087   19.7982  -12.6996 C   0  0  0  0  0  0
  -20.4537   16.2365  -12.9103 C   0  0  0  0  0  0
  -25.3406   21.6696  -10.3354 C   0  0  0  0  0  0
  -24.2530   18.2622  -11.4343 C   0  0  0  0  0  0
  -17.3433   18.5829  -11.7808 H   0  0  0  0  0  0
  -17.9249   16.8872  -11.7339 H   0  0  0  0  0  0
  -21.6916   22.3370  -10.5617 N   0  0  0  0  0  0
  -20.8931   22.1554  -11.2088 H   0  0  0  0  0  0
  -21.5492   25.1152  -10.3585 C   0  0  0  0  0  0
  -19.9569   22.8056   -8.7880 C   0  0  0  0  0  0
  -19.6339   24.1130   -8.0859 C   0  0  0  0  0  0
  -20.9496   24.8731   -8.0407 C   0  0  0  0  0  0
  -21.4170   22.9275   -9.2284 C   0  0  0  0  0  0
  -21.7945   24.3524   -9.1232 N   0  0  0  0  0  0
  1  8  2  0  0  0
  1 13  1  0  0  0
  2  7  2  0  0  0
  2 10  1  0  0  0
  2 12  1  0  0  0
  3  9  1  0  0  0
  3 12  1  0  0  0
  3 16  2  0  0  0
  4 10  2  0  0  0
  4 15  1  0  0  0
  5  8  1  0  0  0
  5  9  2  0  0  0
  5 14  1  0  0  0
  6  8  1  0  0  0
  6 17  1  0  0  0
  6 18  1  0  0  0
  7 11  1  0  0  0
  7 16  1  0  0  0
  9 12  1  0  0  0
  9 13  1  0  0  0
 10 19  1  0  0  0
 11 15  2  0  0  0
 12 13  2  0  0  0
 19 25  1  0  0  0
 19 20  1  0  0  0
 21 26  1  0  0  0
 22 23  1  0  0  0
 22 25  1  0  0  0
 23 24  1  0  0  0
 24 26  1  0  0  0
 25 26  1  0  0  0
M  END
> <s_m_entry_id>
949

> <s_m_entry_name>
10-myco-1_46_lig_gen_fit_add_gna.sdf.6

> <s_m_Source_Path>
C:\Users\maila\Downloads\mgr\myco-analysis

> <s_m_Source_File>
myco-10-var1-wzakresie.mae

> <i_m_Source_File_Index>
96

> <s_user_SMILES>
CC1C(N)=NC2=[C]3([C]=124)C4=Cc5c3c(ccc5)NC6CCCN6C

> <minimizedAffinity>
-9.72386

> <minimizedRMSD>
0.71706

> <CNNscore>
0.954446137

> <CNNaffinity>
6.9661917686

> <CNN_VS>
6.6488547325

> <CNNaffinity_variance>
0.0604106002

$$$$
CN1CCCN1Cn(cc2C3=c24)c4=C(C3)c5c(O)c(O)cnc5
                    3D
 Schrodinger Suite 2021-1.
 25 29  0  0  1  0            999 V2000
  -24.7449   20.8176   -9.1101 C   0  0  0  0  0  0
  -23.4653   19.9096  -11.4543 C   0  0  0  0  0  0
  -23.7031   21.4418   -8.6621 C   0  0  0  0  0  0
  -23.8579   21.1511  -10.9542 C   0  0  0  0  0  0
  -23.0580   21.8069   -9.9115 N   0  0  0  0  0  0
  -25.0523   19.6393  -10.1358 C   0  0  0  0  0  0
  -24.3622   18.8396  -10.8777 C   0  0  0  0  0  0
  -25.2166   20.9485  -10.3647 C   0  0  0  0  0  0
  -21.7218   18.2971  -12.3596 C   0  0  0  0  0  0
  -20.3789   17.9288  -12.5194 C   0  0  0  0  0  0
  -22.7106   17.3675  -12.6519 O   0  0  0  0  0  0
  -21.0852   20.5540  -11.6572 C   0  0  0  0  0  0
  -20.0380   16.6503  -12.9599 O   0  0  0  0  0  0
  -19.7643   20.1372  -11.7916 N   0  0  0  0  0  0
  -22.0777   19.5924  -11.9034 C   0  0  0  0  0  0
  -19.3898   18.8462  -12.2219 C   0  0  0  0  0  0
  -22.4868   16.4554  -13.0227 H   0  0  0  0  0  0
  -19.0711   16.3725  -13.0807 H   0  0  0  0  0  0
  -22.5433   23.1569  -10.1693 C   0  0  0  0  0  0
  -20.4532   23.2660   -8.8370 C   0  0  0  0  0  0
  -21.5205   25.7937  -10.1865 C   0  0  0  0  0  0
  -19.7718   24.3436   -8.0173 C   0  0  0  0  0  0
  -20.8261   25.4325   -7.9044 C   0  0  0  0  0  0
  -21.8570   25.1280   -8.9035 N   0  0  2  0  0  0
  -21.8403   23.7064   -8.9917 N   0  0  1  0  0  0
  1  3  2  0  0  0
  1  6  1  0  0  0
  1  8  1  0  0  0
  2  4  2  0  0  0
  2 15  1  0  0  0
  2  7  1  0  0  0
  3  5  1  0  0  0
  4  5  1  0  0  0
  4  8  1  0  0  0
  5 19  1  0  0  0
  6  7  1  0  0  0
  6  8  2  0  0  0
  9 10  2  0  0  0
  9 11  1  0  0  0
  9 15  1  0  0  0
 10 13  1  0  0  0
 10 16  1  0  0  0
 11 17  1  0  0  0
 12 14  1  0  0  0
 12 15  2  0  0  0
 13 18  1  0  0  0
 14 16  2  0  0  0
 19 25  1  0  0  0
 20 22  1  0  0  0
 20 25  1  0  0  0
 21 24  1  0  0  0
 22 23  1  0  0  0
 23 24  1  0  0  0
 24 25  1  0  0  0
M  END
> <s_m_entry_id>
950

> <s_m_entry_name>
10-myco-1_46_lig_gen_fit_add_gna.sdf.8

> <s_m_Source_Path>
C:\Users\maila\Downloads\mgr\myco-analysis

> <s_m_Source_File>
myco-10-var1-wzakresie.mae

> <i_m_Source_File_Index>
97

> <s_user_SMILES>
CN1CCCN1Cn(cc2C3=c24)c4=C(C3)c5c(O)c(O)cnc5

> <minimizedAffinity>
-8.7052

> <minimizedRMSD>
0.38464

> <CNNscore>
0.8083469272

> <CNNaffinity>
6.4362640381

> <CNN_VS>
5.2027344704

> <CNNaffinity_variance>
0.0755990893

$$$$
Cc1c(N)nnc(c1)C(C2)=CCC(C=23)=CC=C3N[C@@H]4C=CCCCC4
                    3D
 Schrodinger Suite 2021-1.
 28 31  0  0  1  0            999 V2000
  -24.3887   20.9639  -10.2789 C   0  0  0  0  0  0
  -23.6070   18.8921  -11.3112 C   0  0  0  0  0  0
  -23.0740   21.5521  -10.4485 C   0  0  0  0  0  0
  -23.2889   22.9776  -10.5762 C   0  0  0  0  0  0
  -22.1884   20.9094  -11.1852 C   0  0  0  0  0  0
  -24.5747   23.1252  -10.8313 C   0  0  0  0  0  0
  -22.4547   19.5316  -11.6512 C   0  0  0  0  0  0
  -24.6280   19.4974  -10.3879 C   0  0  0  0  0  0
  -25.2856   21.8880  -10.5243 C   0  0  0  0  0  0
  -21.4073   17.5303  -12.7196 C   0  0  0  0  0  0
  -18.9838   18.8072  -12.5889 N   0  0  0  0  0  0
  -19.0010   17.4987  -12.9144 C   0  0  0  0  0  0
  -21.3232   18.8445  -12.2897 C   0  0  0  0  0  0
  -20.3096   15.3649  -12.7415 C   0  0  0  0  0  0
  -20.1021   19.4416  -12.2506 N   0  0  0  0  0  0
  -17.7662   16.8409  -13.2082 N   0  0  0  0  0  0
  -20.2363   16.8215  -12.9016 C   0  0  0  0  0  0
  -16.8783   17.3858  -13.2423 H   0  0  0  0  0  0
  -17.7183   15.8268  -13.4286 H   0  0  0  0  0  0
  -22.3184   24.0358  -10.6941 N   0  0  0  0  0  0
  -22.5873   24.8330  -11.3146 H   0  0  0  0  0  0
  -21.0927   25.6401   -9.2358 C   0  0  0  0  0  0
  -20.7123   23.0772   -8.9844 C   0  0  0  0  0  0
  -22.3527   24.7761   -7.1598 C   0  0  0  0  0  0
  -21.0182   24.1838   -6.7255 C   0  0  0  0  0  0
  -21.0984   24.2448   -9.8879 C   0  0  1  0  0  0
  -20.6123   23.0710   -7.6395 C   0  0  0  0  0  0
  -22.2028   25.8850   -8.2076 C   0  0  0  0  0  0
  1  3  1  0  0  0
  1  8  1  0  0  0
  1  9  2  0  0  0
  2  7  2  0  0  0
  2  8  1  0  0  0
  3  4  1  0  0  0
  3  5  2  0  0  0
  4  6  2  0  0  0
  4 20  1  0  0  0
  5  7  1  0  0  0
  6  9  1  0  0  0
  7 13  1  0  0  0
 10 13  2  0  0  0
 10 17  1  0  0  0
 11 12  1  0  0  0
 11 15  2  0  0  0
 12 16  1  0  0  0
 12 17  2  0  0  0
 13 15  1  0  0  0
 14 17  1  0  0  0
 16 18  1  0  0  0
 16 19  1  0  0  0
 20 26  1  0  0  0
 20 21  1  0  0  0
 22 26  1  0  0  0
 22 28  1  0  0  0
 23 26  1  0  0  0
 23 27  2  0  0  0
 24 25  1  0  0  0
 24 28  1  0  0  0
 25 27  1  0  0  0
M  END
> <s_m_entry_id>
951

> <s_m_entry_name>
10-myco-1_46_lig_gen_fit_add_gna.sdf.9

> <s_m_Source_Path>
C:\Users\maila\Downloads\mgr\myco-analysis

> <s_m_Source_File>
myco-10-var1-wzakresie.mae

> <i_m_Source_File_Index>
98

> <s_user_SMILES>
Cc1c(N)nnc(c1)C(C2)=CCC(C=23)=CC=C3N[C@@H]4C=CCCCC4

> <minimizedAffinity>
-9.87414

> <minimizedRMSD>
0.50717

> <CNNscore>
0.9177942276

> <CNNaffinity>
7.2471618652

> <CNN_VS>
6.6514034271

> <CNNaffinity_variance>
0.1144889221

$$$$
CCCCc1ccc(cc1)NC2=CC=C(C2=3)C=C(C3)C4=NN=CC4
                    3D
 Schrodinger Suite 2021-1.
 25 28  0  0  1  0            999 V2000
  -21.8767   19.1944  -12.2505 C   0  0  0  0  0  0
  -25.0144   20.1975  -11.0022 C   0  0  0  0  0  0
  -23.0336   20.9980  -11.6890 C   0  0  0  0  0  0
  -23.8401   19.8739  -11.5103 C   0  0  0  0  0  0
  -23.0810   18.7112  -11.8923 C   0  0  0  0  0  0
  -23.8038   22.1367  -11.2713 C   0  0  0  0  0  0
  -24.9930   21.6749  -10.8612 C   0  0  0  0  0  0
  -21.8363   20.6724  -12.1224 C   0  0  0  0  0  0
  -20.7269   18.3558  -12.5808 C   0  0  0  0  0  0
  -19.3196   16.6426  -12.9130 C   0  0  0  0  0  0
  -19.5361   18.8178  -12.7627 N   0  0  0  0  0  0
  -20.7602   16.8755  -12.6585 C   0  0  0  0  0  0
  -18.6608   17.7506  -12.9723 N   0  0  0  0  0  0
  -23.3799   23.4993  -11.2824 N   0  0  0  0  0  0
  -23.7092   24.1020  -12.0694 H   0  0  0  0  0  0
  -21.5626   24.0521   -8.0410 C   0  0  0  0  0  0
  -22.5072   24.0522  -10.2836 C   0  0  0  0  0  0
  -20.8101   25.1952   -8.3470 C   0  0  0  0  0  0
  -21.7792   25.2152  -10.5746 C   0  0  0  0  0  0
  -22.3999   23.4797   -9.0018 C   0  0  0  0  0  0
  -20.9414   25.7863   -9.6126 C   0  0  0  0  0  0
  -19.9232   25.8190   -7.3037 C   0  0  0  0  0  0
  -19.0796   24.7423   -6.6076 C   0  0  0  0  0  0
  -17.7955   22.6564   -7.3186 C   0  0  0  0  0  0
  -17.9963   24.1587   -7.5269 C   0  0  0  0  0  0
  1  9  1  0  0  0
  1  5  2  0  0  0
  1  8  1  0  0  0
  2  4  2  0  0  0
  2  7  1  0  0  0
  3  4  1  0  0  0
  3  6  1  0  0  0
  3  8  2  0  0  0
  4  5  1  0  0  0
  6  7  2  0  0  0
  6 14  1  0  0  0
  9 11  2  0  0  0
  9 12  1  0  0  0
 10 12  1  0  0  0
 10 13  2  0  0  0
 11 13  1  0  0  0
 14 17  1  0  0  0
 14 15  1  0  0  0
 16 18  2  0  0  0
 16 20  1  0  0  0
 17 19  1  0  0  0
 17 20  2  0  0  0
 18 22  1  0  0  0
 18 21  1  0  0  0
 19 21  2  0  0  0
 22 23  1  0  0  0
 23 25  1  0  0  0
 24 25  1  0  0  0
M  END
> <s_m_entry_id>
952

> <s_m_entry_name>
10-myco-1_47_lig_gen_fit_add_gna.sdf.1

> <s_m_Source_Path>
C:\Users\maila\Downloads\mgr\myco-analysis

> <s_m_Source_File>
myco-10-var1-wzakresie.mae

> <i_m_Source_File_Index>
99

> <s_user_SMILES>
CCCCc1ccc(cc1)NC2=CC=C(C2=3)C=C(C3)C4=NN=CC4

> <minimizedAffinity>
-8.92741

> <minimizedRMSD>
1.33227

> <CNNscore>
0.9419350028

> <CNNaffinity>
6.8166947365

> <CNN_VS>
6.4208831787

> <CNNaffinity_variance>
0.1429890692

$$$$
CCOc(cc1)ccc1CC2=CC=C(C2=3)C=C(C3)c4cc(N)n[nH]4
                    3D
 Schrodinger Suite 2021-1.
 27 30  0  0  1  0            999 V2000
  -24.1394   19.3432  -11.5369 C   0  0  0  0  0  0
  -25.3869   20.7814  -10.3800 C   0  0  0  0  0  0
  -23.5644   20.6103  -11.5860 C   0  0  0  0  0  0
  -23.1461   18.3923  -11.9814 C   0  0  0  0  0  0
  -24.3712   21.5149  -10.8291 C   0  0  0  0  0  0
  -25.2340   19.3682  -10.8041 C   0  0  0  0  0  0
  -22.3360   20.5687  -12.0124 C   0  0  0  0  0  0
  -22.0716   19.1308  -12.2598 C   0  0  0  0  0  0
  -20.7315   18.6118  -12.4868 C   0  0  0  0  0  0
  -20.2812   17.3080  -12.5040 C   0  0  0  0  0  0
  -18.9134   17.4644  -12.6650 C   0  0  0  0  0  0
  -18.5690   18.7558  -12.6882 N   0  0  0  0  0  0
  -17.9535   16.4407  -12.5382 N   0  0  0  0  0  0
  -19.6902   19.4339  -12.5771 N   0  0  0  0  0  0
  -18.0879   15.7897  -11.7458 H   0  0  0  0  0  0
  -16.9998   16.5728  -12.9362 H   0  0  0  0  0  0
  -19.7509   20.4598  -12.4437 H   0  0  0  0  0  0
  -24.0321   22.9120  -10.4313 C   0  0  0  0  0  0
  -20.6956   23.8868   -8.8619 C   0  0  0  0  0  0
  -20.7206   23.1565   -7.6573 C   0  0  0  0  0  0
  -22.8523   22.1967   -8.3105 C   0  0  0  0  0  0
  -22.8445   22.9421   -9.5009 C   0  0  0  0  0  0
  -21.7520   23.7809   -9.7728 C   0  0  0  0  0  0
  -21.8012   22.3080   -7.3991 C   0  0  0  0  0  0
  -19.7038   23.2382   -6.6917 O   0  0  0  0  0  0
  -17.4372   22.5089   -7.1638 C   0  0  0  0  0  0
  -18.3703   23.6897   -6.9243 C   0  0  0  0  0  0
  1  3  1  0  0  0
  1  4  1  0  0  0
  1  6  2  0  0  0
  2  5  2  0  0  0
  2  6  1  0  0  0
  3  5  1  0  0  0
  3  7  2  0  0  0
  4  8  2  0  0  0
  5 18  1  0  0  0
  7  8  1  0  0  0
  8  9  1  0  0  0
  9 10  2  0  0  0
  9 14  1  0  0  0
 10 11  1  0  0  0
 11 12  2  0  0  0
 11 13  1  0  0  0
 12 14  1  0  0  0
 13 15  1  0  0  0
 13 16  1  0  0  0
 14 17  1  0  0  0
 18 22  1  0  0  0
 19 20  2  0  0  0
 19 23  1  0  0  0
 20 24  1  0  0  0
 20 25  1  0  0  0
 21 22  1  0  0  0
 21 24  2  0  0  0
 22 23  2  0  0  0
 25 27  1  0  0  0
 26 27  1  0  0  0
M  END
> <s_m_entry_id>
953

> <s_m_entry_name>
10-myco-1_47_lig_gen_fit_add_gna.sdf.3

> <s_m_Source_Path>
C:\Users\maila\Downloads\mgr\myco-analysis

> <s_m_Source_File>
myco-10-var1-wzakresie.mae

> <i_m_Source_File_Index>
100

> <s_user_SMILES>
CCOc(cc1)ccc1CC2=CC=C(C2=3)C=C(C3)c4cc(N)n[nH]4

> <minimizedAffinity>
-8.68311

> <minimizedRMSD>
0.54507

> <CNNscore>
0.9396189451

> <CNNaffinity>
6.8500356674

> <CNN_VS>
6.4364233017

> <CNNaffinity_variance>
0.0739161298

$$$$
CCC=C=C1C=CC(=CC1)CC2=CC=C(C2=3)C=CC3[C@@H](C=N4)C=C4N
                    3D
 Schrodinger Suite 2021-1.
 27 30  0  0  1  0            999 V2000
  -24.6986   20.5614  -10.5735 C   0  0  0  0  0  0
  -24.4872   22.7347  -11.0337 C   0  0  0  0  0  0
  -22.9490   19.7524  -11.7042 C   0  0  0  0  0  0
  -23.3501   20.8084  -10.9735 C   0  0  0  0  0  0
  -23.2517   22.2577  -11.1603 C   0  0  0  0  0  0
  -25.0605   19.2254  -10.9629 C   0  0  0  0  0  0
  -25.4174   21.6604  -10.6862 C   0  0  0  0  0  0
  -24.0422   18.7727  -11.6694 C   0  0  0  0  0  0
  -20.5144   20.1622  -12.3001 C   0  0  0  0  0  0
  -20.1457   18.0535  -12.6277 C   0  0  0  0  0  0
  -21.4395   18.1580  -12.8538 C   0  0  0  0  0  0
  -19.5562   19.2950  -12.2950 N   0  0  0  0  0  0
  -19.3967   16.8593  -12.8194 N   0  0  0  0  0  0
  -21.8237   19.5879  -12.6924 C   0  0  1  0  0  0
  -18.3682   16.8442  -12.6419 H   0  0  0  0  0  0
  -19.8706   16.0088  -13.1906 H   0  0  0  0  0  0
  -22.0486   23.1396  -10.9684 C   0  0  0  0  0  0
  -20.7108   24.4784   -7.1411 C   0  0  0  0  0  0
  -21.9092   23.6858   -9.5680 C   0  0  0  0  0  0
  -21.3701   25.0602   -9.3988 C   0  0  0  0  0  0
  -22.0163   22.8717   -8.4985 C   0  0  0  0  0  0
  -21.7050   23.3506   -7.1053 C   0  0  0  0  0  0
  -19.6838   24.4845   -6.3352 C   0  0  0  0  0  0
  -18.6378   24.4555   -5.5549 C   0  0  0  0  0  0
  -20.7713   25.4275   -8.2625 C   0  0  0  0  0  0
  -17.2191   23.0143   -7.0366 C   0  0  0  0  0  0
  -17.2647   24.2347   -6.1180 C   0  0  0  0  0  0
  1  4  1  0  0  0
  1  6  1  0  0  0
  1  7  2  0  0  0
  2  5  2  0  0  0
  2  7  1  0  0  0
  3  4  2  0  0  0
  3  8  1  0  0  0
  3 14  1  0  0  0
  4  5  1  0  0  0
  5 17  1  0  0  0
  6  8  2  0  0  0
  9 12  2  0  0  0
  9 14  1  0  0  0
 10 11  2  0  0  0
 10 12  1  0  0  0
 10 13  1  0  0  0
 11 14  1  0  0  0
 13 15  1  0  0  0
 13 16  1  0  0  0
 17 19  1  0  0  0
 18 22  1  0  0  0
 18 23  2  0  0  0
 18 25  1  0  0  0
 19 20  1  0  0  0
 19 21  2  0  0  0
 20 25  2  0  0  0
 21 22  1  0  0  0
 23 24  2  0  0  0
 24 27  1  0  0  0
 26 27  1  0  0  0
M  END
> <s_m_entry_id>
954

> <s_m_entry_name>
10-myco-1_47_lig_gen_fit_add_gna.sdf.4

> <s_m_Source_Path>
C:\Users\maila\Downloads\mgr\myco-analysis

> <s_m_Source_File>
myco-10-var1-wzakresie.mae

> <i_m_Source_File_Index>
101

> <s_user_SMILES>
CCC=C=C1C=CC(=CC1)CC2=CC=C(C2=3)C=CC3[C@@H](C=N4)C=C4N

> <minimizedAffinity>
-8.82931

> <minimizedRMSD>
0.56122

> <CNNscore>
0.666385293

> <CNNaffinity>
6.8566055298

> <CNN_VS>
4.5691409111

> <CNNaffinity_variance>
0.2116494626

$$$$
CCCCc1ccc(cc1)C2=CC=C(C2=3)C=C(C3)C4=NN=C(C4)N
                    3D
 Schrodinger Suite 2021-1.
 26 29  0  0  1  0            999 V2000
  -24.2060   20.8569   -9.3660 C   0  0  0  0  0  0
  -23.1732   18.6339  -11.9074 C   0  0  0  0  0  0
  -22.1164   19.2874  -12.3857 C   0  0  0  0  0  0
  -24.0007   19.6373  -11.2526 C   0  0  0  0  0  0
  -23.3633   20.9022  -11.4327 C   0  0  0  0  0  0
  -23.5151   21.6516  -10.1914 C   0  0  0  0  0  0
  -24.5069   19.5775  -10.0305 C   0  0  0  0  0  0
  -22.2489   20.7294  -12.1183 C   0  0  0  0  0  0
  -18.9236   17.4599  -12.6019 C   0  0  0  0  0  0
  -18.6044   18.6959  -12.6876 N   0  0  0  0  0  0
  -20.8083   18.6939  -12.6710 C   0  0  0  0  0  0
  -20.4085   17.2575  -12.5911 C   0  0  0  0  0  0
  -17.9610   16.4859  -12.2490 N   0  0  0  0  0  0
  -19.7716   19.4457  -12.7165 N   0  0  0  0  0  0
  -18.2422   15.7543  -11.5739 H   0  0  0  0  0  0
  -16.9446   16.6698  -12.4007 H   0  0  0  0  0  0
  -21.2273   25.1657   -9.1682 C   0  0  0  0  0  0
  -21.6218   24.2584   -8.1693 C   0  0  0  0  0  0
  -22.7784   22.8893   -9.8189 C   0  0  0  0  0  0
  -22.4566   23.8421  -10.8007 C   0  0  0  0  0  0
  -21.6787   24.9586  -10.4820 C   0  0  0  0  0  0
  -22.3513   23.1140   -8.4982 C   0  0  0  0  0  0
  -20.4343   26.4150   -8.8463 C   0  0  0  0  0  0
  -19.3144   26.2498   -7.7975 C   0  0  0  0  0  0
  -17.9477   24.0882   -7.6865 C   0  0  0  0  0  0
  -18.0828   25.4799   -8.3011 C   0  0  0  0  0  0
  1  6  2  0  0  0
  1  7  1  0  0  0
  2  3  2  0  0  0
  2  4  1  0  0  0
  3 11  1  0  0  0
  3  8  1  0  0  0
  4  5  1  0  0  0
  4  7  2  0  0  0
  5  6  1  0  0  0
  5  8  2  0  0  0
  6 19  1  0  0  0
  9 10  2  0  0  0
  9 12  1  0  0  0
  9 13  1  0  0  0
 10 14  1  0  0  0
 11 12  1  0  0  0
 11 14  2  0  0  0
 13 15  1  0  0  0
 13 16  1  0  0  0
 17 18  2  0  0  0
 17 21  1  0  0  0
 17 23  1  0  0  0
 18 22  1  0  0  0
 19 20  1  0  0  0
 19 22  2  0  0  0
 20 21  2  0  0  0
 23 24  1  0  0  0
 24 26  1  0  0  0
 25 26  1  0  0  0
M  END
> <s_m_entry_id>
955

> <s_m_entry_name>
10-myco-1_47_lig_gen_fit_add_gna.sdf.5

> <s_m_Source_Path>
C:\Users\maila\Downloads\mgr\myco-analysis

> <s_m_Source_File>
myco-10-var1-wzakresie.mae

> <i_m_Source_File_Index>
102

> <s_user_SMILES>
CCCCc1ccc(cc1)C2=CC=C(C2=3)C=C(C3)C4=NN=C(C4)N

> <minimizedAffinity>
-9.49663

> <minimizedRMSD>
0.591

> <CNNscore>
0.9464261532

> <CNNaffinity>
6.9020957947

> <CNN_VS>
6.5323238373

> <CNNaffinity_variance>
0.0938296095

$$$$
C1CC[C@H]([C@H]12)N2c(cc3)ccc3CC=4C=CC(C45)=CC(=C5)c6ccc(N)nn6
                    3D
 Schrodinger Suite 2021-1.
 30 35  0  0  1  0            999 V2000
  -23.2743   21.4147  -11.2434 C   0  0  0  0  0  0
  -22.9914   22.1667  -10.1792 C   0  0  0  0  0  0
  -23.5511   19.1926  -11.4666 C   0  0  0  0  0  0
  -24.0199   20.2658  -10.8437 C   0  0  0  0  0  0
  -22.4142   19.6310  -12.3027 C   0  0  0  0  0  0
  -24.2440   20.3914   -9.4167 C   0  0  0  0  0  0
  -22.3174   20.9593  -12.2341 C   0  0  0  0  0  0
  -23.6467   21.5162   -9.0270 C   0  0  0  0  0  0
  -21.2527   17.4104  -12.5708 C   0  0  0  0  0  0
  -20.0481   16.7013  -12.5527 C   0  0  0  0  0  0
  -18.8412   17.4091  -12.5599 C   0  0  0  0  0  0
  -20.0129   19.4272  -12.6228 N   0  0  0  0  0  0
  -17.5937   16.7483  -12.4034 N   0  0  0  0  0  0
  -18.8649   18.7574  -12.6262 N   0  0  0  0  0  0
  -21.2194   18.8070  -12.5732 C   0  0  0  0  0  0
  -17.5587   15.8741  -11.8469 H   0  0  0  0  0  0
  -16.7009   17.2544  -12.5949 H   0  0  0  0  0  0
  -21.6923   22.9238  -10.0963 C   0  0  0  0  0  0
  -21.0553   24.9284   -8.7141 C   0  0  0  0  0  0
  -20.3654   24.6708   -6.4071 C   0  0  0  0  0  0
  -20.7631   23.3313   -6.4364 C   0  0  0  0  0  0
  -20.5264   25.4721   -7.5416 C   0  0  0  0  0  0
  -21.4012   23.5679   -8.7695 C   0  0  0  0  0  0
  -21.2711   22.7789   -7.6145 C   0  0  0  0  0  0
  -17.9549   26.9168   -4.9439 C   0  0  0  0  0  0
  -16.9530   25.7693   -4.9564 C   0  0  0  0  0  0
  -19.7565   25.2063   -5.2371 N   0  0  0  0  0  0
  -17.5877   24.6720   -4.1110 C   0  0  0  0  0  0
  -19.2536   26.3402   -4.4034 C   0  0  1  0  0  0
  -19.0454   25.0644   -3.9307 C   0  0  1  0  0  0
  1  2  2  0  0  0
  1  4  1  0  0  0
  1  7  1  0  0  0
  2 18  1  0  0  0
  2  8  1  0  0  0
  3  4  2  0  0  0
  3  5  1  0  0  0
  4  6  1  0  0  0
  5  7  2  0  0  0
  5 15  1  0  0  0
  6  8  2  0  0  0
  9 10  2  0  0  0
  9 15  1  0  0  0
 10 11  1  0  0  0
 11 13  1  0  0  0
 11 14  2  0  0  0
 12 14  1  0  0  0
 12 15  2  0  0  0
 13 16  1  0  0  0
 13 17  1  0  0  0
 18 23  1  0  0  0
 19 22  2  0  0  0
 19 23  1  0  0  0
 20 21  2  0  0  0
 20 22  1  0  0  0
 20 27  1  0  0  0
 21 24  1  0  0  0
 23 24  2  0  0  0
 25 26  1  0  0  0
 25 29  1  0  0  0
 26 28  1  0  0  0
 27 29  1  0  0  0
 27 30  1  0  0  0
 28 30  1  0  0  0
 29 30  1  0  0  0
M  END
> <s_m_entry_id>
956

> <s_m_entry_name>
10-myco-1_47_lig_gen_fit_add_gna.sdf.6

> <s_m_Source_Path>
C:\Users\maila\Downloads\mgr\myco-analysis

> <s_m_Source_File>
myco-10-var1-wzakresie.mae

> <i_m_Source_File_Index>
103

> <s_user_SMILES>
C1CC[C@H]([C@H]12)N2c(cc3)ccc3CC=4C=CC(C45)=CC(=C5)c6ccc(N)nn6

> <minimizedAffinity>
-10.20385

> <minimizedRMSD>
1.68889

> <CNNscore>
0.9706528783

> <CNNaffinity>
7.1232209206

> <CNN_VS>
6.9141750336

> <CNNaffinity_variance>
0.0330848172

$$$$
C1CCCN1Cc(cc2)ccc2CC3=Cc(c34)ccc(c4)-c5cc(N)n[nH]5
                    3D
 Schrodinger Suite 2021-1.
 30 34  0  0  1  0            999 V2000
  -22.3976   19.2718  -12.0043 C   0  0  0  0  0  0
  -24.5113   20.8480  -11.1580 C   0  0  0  0  0  0
  -23.6763   18.6772  -11.7465 C   0  0  0  0  0  0
  -23.2990   21.3508  -11.3904 C   0  0  0  0  0  0
  -24.9606   22.2097  -10.8282 C   0  0  0  0  0  0
  -24.7724   19.4835  -11.3014 C   0  0  0  0  0  0
  -23.7309   22.6820  -11.1050 C   0  0  0  0  0  0
  -22.2149   20.6575  -11.7665 C   0  0  0  0  0  0
  -21.2191   18.5604  -12.5401 C   0  0  0  0  0  0
  -19.5250   17.1969  -12.6588 C   0  0  0  0  0  0
  -19.0414   18.4341  -12.7677 N   0  0  0  0  0  0
  -18.6868   16.1226  -12.2861 N   0  0  0  0  0  0
  -20.9100   17.2190  -12.5344 C   0  0  0  0  0  0
  -20.0841   19.2307  -12.7252 N   0  0  0  0  0  0
  -18.9568   15.5940  -11.4376 H   0  0  0  0  0  0
  -17.6699   16.1660  -12.5204 H   0  0  0  0  0  0
  -20.0425   20.2490  -12.6734 H   0  0  0  0  0  0
  -22.9196   23.9457  -11.1501 C   0  0  0  0  0  0
  -20.4564   24.6755   -7.6763 C   0  0  0  0  0  0
  -22.1666   24.2632   -9.8797 C   0  0  0  0  0  0
  -20.2829   25.4130   -8.8553 C   0  0  0  0  0  0
  -21.1330   25.2115   -9.9443 C   0  0  0  0  0  0
  -22.3492   23.5366   -8.6860 C   0  0  0  0  0  0
  -21.5069   23.7500   -7.5925 C   0  0  0  0  0  0
  -19.4471   24.7853   -6.5648 C   0  0  0  0  0  0
  -18.2086   22.7552   -7.1612 C   0  0  0  0  0  0
  -16.2238   23.2215   -5.9077 C   0  0  0  0  0  0
  -17.0809   24.4797   -6.0232 C   0  0  0  0  0  0
  -18.1541   24.2127   -6.9926 N   0  0  0  0  0  0
  -16.8144   22.2337   -6.8914 C   0  0  0  0  0  0
  1  9  1  0  0  0
  1  3  2  0  0  0
  1  8  1  0  0  0
  2  4  1  0  0  0
  2  5  1  0  0  0
  2  6  2  0  0  0
  3  6  1  0  0  0
  4  7  1  0  0  0
  4  8  2  0  0  0
  5  7  2  0  0  0
  7 18  1  0  0  0
  9 13  2  0  0  0
  9 14  1  0  0  0
 10 11  2  0  0  0
 10 12  1  0  0  0
 10 13  1  0  0  0
 11 14  1  0  0  0
 12 15  1  0  0  0
 12 16  1  0  0  0
 14 17  1  0  0  0
 18 20  1  0  0  0
 19 21  2  0  0  0
 19 25  1  0  0  0
 19 24  1  0  0  0
 20 22  2  0  0  0
 20 23  1  0  0  0
 21 22  1  0  0  0
 23 24  2  0  0  0
 25 29  1  0  0  0
 26 29  1  0  0  0
 26 30  1  0  0  0
 27 28  1  0  0  0
 27 30  1  0  0  0
 28 29  1  0  0  0
M  END
> <s_m_entry_id>
957

> <s_m_entry_name>
10-myco-1_47_lig_gen_fit_add_gna.sdf.9

> <s_m_Source_Path>
C:\Users\maila\Downloads\mgr\myco-analysis

> <s_m_Source_File>
myco-10-var1-wzakresie.mae

> <i_m_Source_File_Index>
104

> <s_user_SMILES>
C1CCCN1Cc(cc2)ccc2CC3=Cc(c34)ccc(c4)-c5cc(N)n[nH]5

> <minimizedAffinity>
-9.12719

> <minimizedRMSD>
0.74823

> <CNNscore>
0.9256640673

> <CNNaffinity>
6.7859191895

> <CNN_VS>
6.2814817429

> <CNNaffinity_variance>
0.0797808394

$$$$
C1CCC1c(cc2)ccc2CC(=CC3)[C@@H](C=34)C=C(C=C4)c5cc[nH]n5
                    3D
 Schrodinger Suite 2021-1.
 26 30  0  0  1  0            999 V2000
  -24.8271   22.4668  -11.1469 C   0  0  0  0  0  0
  -21.9031   19.3367  -12.2408 C   0  0  0  0  0  0
  -22.9542   21.1448  -10.9155 C   0  0  1  0  0  0
  -23.1093   18.4878  -12.0324 C   0  0  0  0  0  0
  -21.9243   20.6435  -11.8945 C   0  0  0  0  0  0
  -23.5044   22.5083  -11.1726 C   0  0  0  0  0  0
  -25.2653   21.1037  -10.9824 C   0  0  0  0  0  0
  -24.2011   18.9498  -11.4226 C   0  0  0  0  0  0
  -24.2012   20.3337  -10.9690 C   0  0  0  0  0  0
  -19.0522   17.2441  -13.0254 C   0  0  0  0  0  0
  -20.6312   18.6997  -12.6435 C   0  0  0  0  0  0
  -19.4529   19.3505  -12.6844 N   0  0  0  0  0  0
  -20.4112   17.3461  -12.8459 C   0  0  0  0  0  0
  -18.5065   18.4638  -12.9302 N   0  0  0  0  0  0
  -17.4946   18.6922  -13.0282 H   0  0  0  0  0  0
  -22.7046   23.7706  -11.2848 C   0  0  0  0  0  0
  -20.6446   25.0694   -7.6956 C   0  0  0  0  0  0
  -22.0296   24.2071  -10.0028 C   0  0  0  0  0  0
  -21.1512   25.2968  -10.0615 C   0  0  0  0  0  0
  -22.2583   23.5892   -8.7576 C   0  0  0  0  0  0
  -21.5544   23.9983   -7.6236 C   0  0  0  0  0  0
  -20.4694   25.7262   -8.9210 C   0  0  0  0  0  0
  -20.0061   24.6665   -5.2378 C   0  0  0  0  0  0
  -18.5631   24.1986   -5.3161 C   0  0  0  0  0  0
  -18.3523   25.0226   -6.5793 C   0  0  0  0  0  0
  -19.8036   25.4934   -6.5061 C   0  0  0  0  0  0
  1  6  2  0  0  0
  1  7  1  0  0  0
  2  4  1  0  0  0
  2  5  2  0  0  0
  2 11  1  0  0  0
  3  5  1  0  0  0
  3  6  1  0  0  0
  3  9  1  0  0  0
  4  8  2  0  0  0
  6 16  1  0  0  0
  7  9  2  0  0  0
  8  9  1  0  0  0
 10 13  2  0  0  0
 10 14  1  0  0  0
 11 12  2  0  0  0
 11 13  1  0  0  0
 12 14  1  0  0  0
 14 15  1  0  0  0
 16 18  1  0  0  0
 17 21  2  0  0  0
 17 26  1  0  0  0
 17 22  1  0  0  0
 18 19  1  0  0  0
 18 20  2  0  0  0
 19 22  2  0  0  0
 20 21  1  0  0  0
 23 24  1  0  0  0
 23 26  1  0  0  0
 24 25  1  0  0  0
 25 26  1  0  0  0
M  END
> <s_m_entry_id>
958

> <s_m_entry_name>
10-myco-1_47_lig_gen_fit_add_gna.sdf.10

> <s_m_Source_Path>
C:\Users\maila\Downloads\mgr\myco-analysis

> <s_m_Source_File>
myco-10-var1-wzakresie.mae

> <i_m_Source_File_Index>
105

> <s_user_SMILES>
C1CCC1c(cc2)ccc2CC(=CC3)[C@@H](C=34)C=C(C=C4)c5cc[nH]n5

> <minimizedAffinity>
-9.6108

> <minimizedRMSD>
0.56093

> <CNNscore>
0.9496648312

> <CNNaffinity>
6.8682541847

> <CNN_VS>
6.5225396156

> <CNNaffinity_variance>
0.0423030443

$$$$
CCCCNc(cc1)ccc1C[C]2=3C(C2)=CC=C(C3)c4cnc(N)c(c45)c5=N
                    3D
 Schrodinger Suite 2021-1.
 32 36  0  0  1  0            999 V2000
  -22.8305  -20.7530   11.5268 C   0  0  0  0  0  0
  -24.0353  -21.2708   10.6997 C   0  0  0  0  0  0
  -22.7522  -19.2155   11.7349 C   0  0  0  0  0  0
  -23.8749  -18.4537   11.6927 C   0  0  0  0  0  0
  -24.3840  -20.6988    9.4537 C   0  0  0  0  0  0
  -25.1932  -19.0268   11.3257 C   0  0  0  0  0  0
  -25.0833  -20.1629   10.6991 C   0  0  0  0  0  0
  -18.8810  -17.4512   12.8989 C   0  0  0  0  0  0
  -20.0077  -16.7640   12.6862 C   0  0  0  0  0  0
  -20.2174  -19.3506   12.1661 C   0  0  0  0  0  0
  -21.4345  -18.5860   12.0502 C   0  0  0  0  0  0
  -19.0073  -18.7836   12.5886 N   0  0  0  0  0  0
  -17.6748  -16.8408   13.3199 N   0  0  0  0  0  0
  -21.3714  -14.6511   12.5578 N   0  0  0  0  0  0
  -21.2224  -17.2279   12.2892 C   0  0  0  0  0  0
  -21.0118  -15.8852   12.5259 C   0  0  0  0  0  0
  -17.6255  -15.8116   13.4608 H   0  0  0  0  0  0
  -16.8413  -17.4081   13.5457 H   0  0  0  0  0  0
  -22.2484  -14.2952   12.1590 H   0  0  0  0  0  0
  -24.3696  -22.7673   10.7878 C   0  0  0  0  0  0
  -22.5150  -24.5077   10.7873 C   0  0  0  0  0  0
  -21.2899  -25.0344    8.7466 C   0  0  0  0  0  0
  -23.0085  -23.3288    8.7341 C   0  0  0  0  0  0
  -23.2792  -23.5553   10.0933 C   0  0  0  0  0  0
  -22.0306  -24.0611    8.0689 C   0  0  0  0  0  0
  -21.5337  -25.2505   10.1170 C   0  0  0  0  0  0
  -20.3363  -25.8050    8.0023 N   0  0  0  0  0  0
  -20.6890  -26.3858    7.2034 H   0  0  0  0  0  0
  -18.9086  -25.8641    8.3008 C   0  0  0  0  0  0
  -18.0828  -25.3450    7.1078 C   0  0  0  0  0  0
  -18.3219  -22.8665    7.7151 C   0  0  0  0  0  0
  -17.3727  -24.0129    7.3938 C   0  0  0  0  0  0
  1  2  2  0  0  0
  1  3  1  0  0  0
  2 20  1  0  0  0
  2  5  1  0  0  0
  2  7  1  0  0  0
  3 11  1  0  0  0
  3  4  2  0  0  0
  4  6  1  0  0  0
  5  7  1  0  0  0
  6  7  2  0  0  0
  8  9  2  0  0  0
  8 12  1  0  0  0
  8 13  1  0  0  0
  9 15  1  0  0  0
  9 16  1  0  0  0
 10 11  1  0  0  0
 10 12  2  0  0  0
 11 15  2  0  0  0
 13 17  1  0  0  0
 13 18  1  0  0  0
 14 16  2  0  0  0
 14 19  1  0  0  0
 15 16  1  0  0  0
 20 24  1  0  0  0
 21 24  2  0  0  0
 21 26  1  0  0  0
 22 27  1  0  0  0
 22 25  1  0  0  0
 22 26  2  0  0  0
 23 24  1  0  0  0
 23 25  2  0  0  0
 27 29  1  0  0  0
 27 28  1  0  0  0
 29 30  1  0  0  0
 30 32  1  0  0  0
 31 32  1  0  0  0
M  END
> <s_m_entry_id>
959

> <s_m_entry_name>
10-myco-1_48_lig_gen_fit_add_gna.sdf.1

> <s_m_Source_Path>
C:\Users\maila\Downloads\mgr\myco-analysis

> <s_m_Source_File>
myco-10-var1-wzakresie.mae

> <i_m_Source_File_Index>
106

> <s_user_SMILES>
CCCCNc(cc1)ccc1C[C]2=3C(C2)=CC=C(C3)c4cnc(N)c(c45)c5=N

> <minimizedAffinity>
-9.20911

> <minimizedRMSD>
0.57841

> <CNNscore>
0.8438051939

> <CNNaffinity>
7.2548575401

> <CNN_VS>
6.1216864586

> <CNNaffinity_variance>
0.1303706467

$$$$
C1CN1Cc2ccc(cc2)NC3=CC=C(C3=4)C=C(C4)c5c(N)c(N)nnc5
                    3D
 Schrodinger Suite 2021-1.
 32 36  0  0  1  0            999 V2000
  -24.1253  -20.4842   11.1823 C   0  0  0  0  0  0
  -24.6397  -19.2002   11.1491 C   0  0  0  0  0  0
  -26.0746  -20.6040   10.1517 C   0  0  0  0  0  0
  -23.6082  -18.3147   11.6449 C   0  0  0  0  0  0
  -22.5760  -19.1211   11.9811 C   0  0  0  0  0  0
  -25.0418  -21.3550   10.5273 C   0  0  0  0  0  0
  -25.8203  -19.1934   10.5513 C   0  0  0  0  0  0
  -22.9447  -20.5363   11.7273 C   0  0  0  0  0  0
  -19.3590  -17.1558   12.5769 C   0  0  0  0  0  0
  -20.7305  -17.3882   12.3802 C   0  0  0  0  0  0
  -21.1630  -18.7085   12.1475 C   0  0  0  0  0  0
  -21.6484  -16.2980   12.4568 N   0  0  0  0  0  0
  -18.8813  -19.3946   12.1983 N   0  0  0  0  0  0
  -18.9044  -15.9834   13.2059 N   0  0  0  0  0  0
  -18.4805  -18.1630   12.4533 N   0  0  0  0  0  0
  -20.1866  -19.7027   12.0502 C   0  0  0  0  0  0
  -21.3192  -15.3175   12.3132 H   0  0  0  0  0  0
  -22.6437  -16.4498   12.7224 H   0  0  0  0  0  0
  -19.3190  -15.8379   14.1474 H   0  0  0  0  0  0
  -17.9078  -15.7024   13.0864 H   0  0  0  0  0  0
  -24.7608  -22.6887   10.1228 N   0  0  0  0  0  0
  -25.3335  -23.4389   10.5690 H   0  0  0  0  0  0
  -20.9465  -23.6943    8.5479 C   0  0  0  0  0  0
  -23.4599  -23.0023    9.6058 C   0  0  0  0  0  0
  -22.5629  -23.7704   10.3619 C   0  0  0  0  0  0
  -23.0774  -22.5491    8.3347 C   0  0  0  0  0  0
  -21.3098  -24.1078    9.8400 C   0  0  0  0  0  0
  -21.8358  -22.9048    7.8036 C   0  0  0  0  0  0
  -19.6030  -24.0519    7.9752 C   0  0  0  0  0  0
  -17.7412  -22.5491    7.4478 C   0  0  0  0  0  0
  -19.1283  -22.9504    7.1169 N   0  0  0  0  0  0
  -17.9900  -23.3709    6.2675 C   0  0  0  0  0  0
  1  2  1  0  0  0
  1  6  1  0  0  0
  1  8  2  0  0  0
  2  4  1  0  0  0
  2  7  2  0  0  0
  3  6  2  0  0  0
  3  7  1  0  0  0
  4  5  2  0  0  0
  5 11  1  0  0  0
  5  8  1  0  0  0
  6 21  1  0  0  0
  9 10  2  0  0  0
  9 14  1  0  0  0
  9 15  1  0  0  0
 10 11  1  0  0  0
 10 12  1  0  0  0
 11 16  2  0  0  0
 12 17  1  0  0  0
 12 18  1  0  0  0
 13 15  2  0  0  0
 13 16  1  0  0  0
 14 19  1  0  0  0
 14 20  1  0  0  0
 21 24  1  0  0  0
 21 22  1  0  0  0
 23 27  2  0  0  0
 23 29  1  0  0  0
 23 28  1  0  0  0
 24 25  2  0  0  0
 24 26  1  0  0  0
 25 27  1  0  0  0
 26 28  2  0  0  0
 29 31  1  0  0  0
 30 31  1  0  0  0
 30 32  1  0  0  0
 31 32  1  0  0  0
M  END
> <s_m_entry_id>
960

> <s_m_entry_name>
10-myco-1_48_lig_gen_fit_add_gna.sdf.5

> <s_m_Source_Path>
C:\Users\maila\Downloads\mgr\myco-analysis

> <s_m_Source_File>
myco-10-var1-wzakresie.mae

> <i_m_Source_File_Index>
107

> <s_user_SMILES>
C1CN1Cc2ccc(cc2)NC3=CC=C(C3=4)C=C(C4)c5c(N)c(N)nnc5

> <minimizedAffinity>
-9.0815

> <minimizedRMSD>
0.66141

> <CNNscore>
0.7429065704

> <CNNaffinity>
7.0751085281

> <CNN_VS>
5.2561445236

> <CNNaffinity_variance>
0.2909682393

$$$$
N1CCN1Cc2ccc(cc2)NC(=C3C4=[C]356)CC=C6C5=Cc7c4nnc(N)c7O
                    3D
 Schrodinger Suite 2021-1.
 34 40  0  0  1  0            999 V2000
  -21.0038  -18.5557   12.3549 C   0  0  0  0  0  0
  -24.2732  -22.3081   10.7042 C   0  0  0  0  0  0
  -22.3820  -18.4794   12.1237 C   0  0  0  0  0  0
  -25.0896  -20.9811   11.0566 C   0  0  0  0  0  0
  -24.3724  -19.6576   11.3417 C   0  0  0  0  0  0
  -22.9276  -22.5767    8.4912 C   0  0  0  0  0  0
  -25.1667  -21.4733    9.6930 C   0  0  0  0  0  0
  -23.2009  -22.6772    9.7923 C   0  0  0  0  0  0
  -20.9974  -20.8438   11.8079 N   0  0  0  0  0  0
  -20.2717  -17.3852   12.7185 N   0  0  0  0  0  0
  -22.9725  -21.8753   11.1054 C   0  0  0  0  0  0
  -24.4867  -20.7234    8.5494 C   0  0  0  0  0  0
  -22.3418  -20.8506   11.6519 C   0  0  0  0  0  0
  -22.9984  -17.2336   12.2249 O   0  0  0  0  0  0
  -23.0778  -19.6537   11.7506 C   0  0  0  0  0  0
  -20.3524  -19.7332   12.1666 N   0  0  0  0  0  0
  -23.5155  -21.3668    7.8831 C   0  0  0  0  0  0
  -19.2390  -17.4240   12.8687 H   0  0  0  0  0  0
  -19.2389  -17.4229   12.8689 H   0  0  0  0  0  0
  -23.9802  -17.0836   12.0522 H   0  0  0  0  0  0
  -22.6717  -23.7298    7.6826 N   0  0  0  0  0  0
  -23.4813  -24.1121    7.1434 H   0  0  0  0  0  0
  -18.7542  -24.7967    6.4057 C   0  0  0  0  0  0
  -20.2948  -24.2138    8.1921 C   0  0  0  0  0  0
  -21.0952  -24.3811    5.9158 C   0  0  0  0  0  0
  -21.3507  -24.1219    7.2726 C   0  0  0  0  0  0
  -19.8085  -24.7206    5.4847 C   0  0  0  0  0  0
  -19.0063  -24.5268    7.7564 C   0  0  0  0  0  0
  -17.3603  -25.1513    5.9630 C   0  0  0  0  0  0
  -15.0099  -24.5466    6.1834 C   0  0  0  0  0  0
  -14.9437  -23.2358    5.4546 C   0  0  0  0  0  0
  -16.3846  -24.2163    6.5651 N   0  0  0  0  0  0
  -16.3215  -22.9798    5.8616 N   0  0  0  0  0  0
  -16.9270  -22.9800    5.0048 H   0  0  0  0  0  0
  1  3  2  0  0  0
  1 10  1  0  0  0
  1 16  1  0  0  0
  2  4  1  0  0  0
  2  7  1  0  0  0
  2  8  1  0  0  0
  2 11  2  0  0  0
  3 14  1  0  0  0
  3 15  1  0  0  0
  4  5  2  0  0  0
  4  7  1  0  0  0
  5 15  1  0  0  0
  6  8  2  0  0  0
  6 21  1  0  0  0
  6 17  1  0  0  0
  7 12  2  0  0  0
  8 11  1  0  0  0
  9 13  1  0  0  0
  9 16  2  0  0  0
 10 18  1  0  0  0
 10 19  1  0  0  0
 11 13  1  0  0  0
 12 17  1  0  0  0
 13 15  2  0  0  0
 14 20  1  0  0  0
 21 26  1  0  0  0
 21 22  1  0  0  0
 23 27  2  0  0  0
 23 29  1  0  0  0
 23 28  1  0  0  0
 24 26  1  0  0  0
 24 28  2  0  0  0
 25 26  2  0  0  0
 25 27  1  0  0  0
 29 32  1  0  0  0
 30 31  1  0  0  0
 30 32  1  0  0  0
 31 33  1  0  0  0
 32 33  1  0  0  0
 33 34  1  0  0  0
M  END
> <s_m_entry_id>
961

> <s_m_entry_name>
10-myco-1_48_lig_gen_fit_add_gna.sdf.6

> <s_m_Source_Path>
C:\Users\maila\Downloads\mgr\myco-analysis

> <s_m_Source_File>
myco-10-var1-wzakresie.mae

> <i_m_Source_File_Index>
108

> <s_user_SMILES>
N1CCN1Cc2ccc(cc2)NC(=C3C4=[C]356)CC=C6C5=Cc7c4nnc(N)c7O

> <minimizedAffinity>
-8.73901

> <minimizedRMSD>
0.72236

> <CNNscore>
0.7417193055

> <CNNaffinity>
6.6367025375

> <CNN_VS>
4.9225702286

> <CNNaffinity_variance>
0.1777199209

$$$$
C[C@@H](C1)[C@H]1Cc2ccc(cc2)NC3=CC=C(C3=4)C=C(C4)c5nnc(O)c(c56)[C@@H]6N
                    3D
 Schrodinger Suite 2021-1.
 33 38  0  0  1  0            999 V2000
  -24.2388  -19.8716   11.2571 C   0  0  0  0  0  0
  -22.3004  -19.2230   12.0935 C   0  0  0  0  0  0
  -24.1023  -22.1185   10.8494 C   0  0  0  0  0  0
  -25.3320  -21.6925   10.5244 C   0  0  0  0  0  0
  -23.5087  -18.7235   11.7614 C   0  0  0  0  0  0
  -25.4146  -20.2204   10.7605 C   0  0  0  0  0  0
  -23.3965  -20.9781   11.3363 C   0  0  0  0  0  0
  -22.2376  -20.6797   11.8548 C   0  0  0  0  0  0
  -18.6367  -17.1201   13.1990 C   0  0  0  0  0  0
  -21.0938  -18.4560   12.3685 C   0  0  0  0  0  0
  -19.7891  -16.4427   12.9541 C   0  0  0  0  0  0
  -18.7251  -18.4649   12.9140 N   0  0  0  0  0  0
  -20.6849  -15.8531   12.0699 C   0  0  1  0  0  0
  -21.0147  -17.1191   12.5269 C   0  0  0  0  0  0
  -17.4742  -16.5630   13.6958 O   0  0  0  0  0  0
  -19.8737  -19.0836   12.5228 N   0  0  0  0  0  0
  -21.5894  -14.8638   12.6230 N   0  0  0  0  0  0
  -17.4287  -15.5869   13.9150 H   0  0  0  0  0  0
  -21.0837  -14.2442   13.2813 H   0  0  0  0  0  0
  -21.8790  -14.2433   11.8376 H   0  0  0  0  0  0
  -23.6631  -23.4709   10.9727 N   0  0  0  0  0  0
  -24.2145  -24.1005   11.5958 H   0  0  0  0  0  0
  -20.4880  -25.1452    8.6722 C   0  0  0  0  0  0
  -21.1952  -25.9261    9.6036 C   0  0  0  0  0  0
  -22.1931  -25.3529   10.3993 C   0  0  0  0  0  0
  -22.5311  -23.9990   10.2560 C   0  0  0  0  0  0
  -20.8061  -23.7820    8.5524 C   0  0  0  0  0  0
  -21.8211  -23.2165    9.3290 C   0  0  0  0  0  0
  -19.5548  -25.7822    7.6685 C   0  0  0  0  0  0
  -16.1737  -26.6133    9.5604 C   0  0  0  0  0  0
  -18.4531  -26.6411    8.3136 C   0  0  2  0  0  0
  -17.0727  -26.0086    8.4813 C   0  0  2  0  0  0
  -17.3341  -26.9590    7.3224 C   0  0  0  0  0  0
  1  5  1  0  0  0
  1  6  2  0  0  0
  1  7  1  0  0  0
  2 10  1  0  0  0
  2  5  2  0  0  0
  2  8  1  0  0  0
  3  4  2  0  0  0
  3  7  1  0  0  0
  3 21  1  0  0  0
  4  6  1  0  0  0
  7  8  2  0  0  0
  9 11  2  0  0  0
  9 12  1  0  0  0
  9 15  1  0  0  0
 10 14  2  0  0  0
 10 16  1  0  0  0
 11 13  1  0  0  0
 11 14  1  0  0  0
 12 16  2  0  0  0
 13 14  1  0  0  0
 13 17  1  0  0  0
 15 18  1  0  0  0
 17 19  1  0  0  0
 17 20  1  0  0  0
 21 26  1  0  0  0
 21 22  1  0  0  0
 23 24  2  0  0  0
 23 27  1  0  0  0
 23 29  1  0  0  0
 24 25  1  0  0  0
 25 26  2  0  0  0
 26 28  1  0  0  0
 27 28  2  0  0  0
 29 31  1  0  0  0
 30 32  1  0  0  0
 31 32  1  0  0  0
 31 33  1  0  0  0
 32 33  1  0  0  0
M  END
> <s_m_entry_id>
962

> <s_m_entry_name>
10-myco-1_48_lig_gen_fit_add_gna.sdf.7

> <s_m_Source_Path>
C:\Users\maila\Downloads\mgr\myco-analysis

> <s_m_Source_File>
myco-10-var1-wzakresie.mae

> <i_m_Source_File_Index>
109

> <s_user_SMILES>
C[C@@H](C1)[C@H]1Cc2ccc(cc2)NC3=CC=C(C3=4)C=C(C4)c5nnc(O)c(c56)[C@@H]6N

> <minimizedAffinity>
-11.10455

> <minimizedRMSD>
0.42457

> <CNNscore>
0.8767638206

> <CNNaffinity>
7.1179909706

> <CNN_VS>
6.2407970428

> <CNNaffinity_variance>
0.2016935349

$$$$
C1CN([C@@H]12)CCN2c(cc3)ccc3Cc(n4)ccc(=C5)c4=C(C567)C6=NC(N)=C7O
                    3D
 Schrodinger Suite 2021-1.
 32 38  0  0  1  0            999 V2000
  -23.2424  -18.7088   11.9473 C   0  0  0  0  0  0
  -24.8673  -19.9942   10.7378 C   0  0  0  0  0  0
  -21.4106  -19.3264   12.3971 C   0  0  0  0  0  0
  -20.0695  -16.9349   12.8468 C   0  0  0  0  0  0
  -22.4699  -17.6263   12.2347 C   0  0  0  0  0  0
  -20.0190  -18.8743   12.6362 C   0  0  0  0  0  0
  -18.8170  -17.4420   12.8829 C   0  0  0  0  0  0
  -17.6505  -16.6668   13.1198 N   0  0  0  0  0  0
  -18.7489  -18.8451   12.6802 N   0  0  0  0  0  0
  -24.4704  -18.7607   11.2887 C   0  0  0  0  0  0
  -21.1356  -18.0084   12.9080 C   0  0  3  0  0  0
  -22.8108  -21.0111   11.4917 N   0  0  0  0  0  0
  -23.9926  -21.1106   10.8137 C   0  0  0  0  0  0
  -22.5333  -19.8575   12.1273 C   0  0  0  0  0  0
  -20.3245  -15.5685   12.9172 O   0  0  0  0  0  0
  -17.7279  -15.6650   13.3723 H   0  0  0  0  0  0
  -16.7300  -17.1414   13.2221 H   0  0  0  0  0  0
  -21.2636  -15.1995   12.9632 H   0  0  0  0  0  0
  -24.3399  -22.4080   10.1633 C   0  0  0  0  0  0
  -21.9197  -22.8702    7.2551 C   0  0  0  0  0  0
  -20.9476  -23.7004    7.8251 C   0  0  0  0  0  0
  -21.0874  -24.1224    9.1543 C   0  0  0  0  0  0
  -23.1794  -22.8982    9.3340 C   0  0  0  0  0  0
  -23.0139  -22.4464    8.0155 C   0  0  0  0  0  0
  -22.1998  -23.7287    9.9035 C   0  0  0  0  0  0
  -19.8699  -24.9055    5.8830 C   0  0  0  0  0  0
  -18.4179  -25.2523    5.5690 C   0  0  0  0  0  0
  -18.4448  -23.9980    7.5696 C   0  0  1  0  0  0
  -16.8955  -23.4663    6.3474 C   0  0  0  0  0  0
  -17.7929  -22.6616    7.2680 C   0  0  0  0  0  0
  -19.7986  -24.0835    7.0634 N   0  0  0  0  0  0
  -17.5642  -24.7403    6.6649 N   0  0  2  0  0  0
  1  5  2  0  0  0
  1 10  1  0  0  0
  1 14  1  0  0  0
  2 10  2  0  0  0
  2 13  1  0  0  0
  3  6  1  0  0  0
  3 11  1  0  0  0
  3 14  2  0  0  0
  4  7  2  0  0  0
  4 11  1  0  0  0
  4 15  1  0  0  0
  5 11  1  0  0  0
  6  9  2  0  0  0
  6 11  1  0  0  0
  7  8  1  0  0  0
  7  9  1  0  0  0
  8 16  1  0  0  0
  8 17  1  0  0  0
 12 13  2  0  0  0
 12 14  1  0  0  0
 13 19  1  0  0  0
 15 18  1  0  0  0
 19 23  1  0  0  0
 20 21  2  0  0  0
 20 24  1  0  0  0
 21 22  1  0  0  0
 21 31  1  0  0  0
 22 25  2  0  0  0
 23 24  2  0  0  0
 23 25  1  0  0  0
 26 27  1  0  0  0
 26 31  1  0  0  0
 27 32  1  0  0  0
 28 30  1  0  0  0
 28 31  1  0  0  0
 28 32  1  0  0  0
 29 30  1  0  0  0
 29 32  1  0  0  0
M  END
> <s_m_entry_id>
963

> <s_m_entry_name>
10-myco-1_48_lig_gen_fit_add_gna.sdf.8

> <s_m_Source_Path>
C:\Users\maila\Downloads\mgr\myco-analysis

> <s_m_Source_File>
myco-10-var1-wzakresie.mae

> <i_m_Source_File_Index>
110

> <s_user_SMILES>
C1CN([C@@H]12)CCN2c(cc3)ccc3Cc(n4)ccc(=C5)c4=C(C567)C6=NC(N)=C7O

> <minimizedAffinity>
-11.15722

> <minimizedRMSD>
0.37653

> <CNNscore>
0.9486225247

> <CNNaffinity>
7.148168087

> <CNN_VS>
6.780913353

> <CNNaffinity_variance>
0.0474707298

$$$$
C1CCC1Cc2ccc(cc2)Cc(c3)ccc(c34)C\4=C(/C5)N=NC(N)=C5C
                    3D
 Schrodinger Suite 2021-1.
 29 33  0  0  1  0            999 V2000
  -25.5563  -21.1816   10.9317 C   0  0  0  0  0  0
  -20.8945  -17.4407   12.2492 C   0  0  0  0  0  0
  -23.0607  -18.8254   12.3022 C   0  0  0  0  0  0
  -24.5539  -20.2872   10.9091 C   0  0  0  0  0  0
  -20.2121  -18.5907   12.3593 C   0  0  0  0  0  0
  -23.6234  -22.8329   10.5837 C   0  0  0  0  0  0
  -20.9006  -19.7623   12.7915 N   0  0  0  0  0  0
  -25.0234  -22.5112   10.9150 C   0  0  0  0  0  0
  -22.6361  -21.8097   10.3798 C   0  0  0  0  0  0
  -18.7815  -18.6326   12.2853 N   0  0  0  0  0  0
  -20.1798  -16.1220   12.3359 C   0  0  0  0  0  0
  -22.3961  -17.4425   12.3929 C   0  0  0  0  0  0
  -23.1656  -20.5957   10.6375 C   0  0  0  0  0  0
  -22.1700  -19.8343   12.8852 N   0  0  0  0  0  0
  -23.5760  -19.2793   10.9012 C   0  0  0  0  0  0
  -18.1993  -17.8053   12.0314 H   0  0  0  0  0  0
  -18.2821  -19.5278   12.4688 H   0  0  0  0  0  0
  -23.1546  -24.2674   10.5537 C   0  0  0  0  0  0
  -22.1846  -24.5777    9.4265 C   0  0  0  0  0  0
  -20.1698  -24.9466    7.4879 C   0  0  0  0  0  0
  -20.0098  -25.4552    8.7846 C   0  0  0  0  0  0
  -21.3784  -24.3258    7.1398 C   0  0  0  0  0  0
  -22.3877  -24.1627    8.0928 C   0  0  0  0  0  0
  -21.0132  -25.2791    9.7378 C   0  0  0  0  0  0
  -19.0242  -24.9816    6.5116 C   0  0  0  0  0  0
  -18.0725  -22.8097    7.5345 C   0  0  0  0  0  0
  -18.4838  -23.5599    6.2669 C   0  0  0  0  0  0
  -17.0338  -23.5308    5.7872 C   0  0  0  0  0  0
  -16.6314  -22.7771    7.0474 C   0  0  0  0  0  0
  1  4  2  0  0  0
  1  8  1  0  0  0
  2  5  2  0  0  0
  2 11  1  0  0  0
  2 12  1  0  0  0
  3 12  1  0  0  0
  3 14  1  0  0  0
  3 15  2  0  0  0
  4 13  1  0  0  0
  4 15  1  0  0  0
  5  7  1  0  0  0
  5 10  1  0  0  0
  6 18  1  0  0  0
  6  8  2  0  0  0
  6  9  1  0  0  0
  7 14  2  0  0  0
  9 13  2  0  0  0
 10 16  1  0  0  0
 10 17  1  0  0  0
 13 15  1  0  0  0
 18 19  1  0  0  0
 19 23  2  0  0  0
 19 24  1  0  0  0
 20 21  1  0  0  0
 20 22  2  0  0  0
 20 25  1  0  0  0
 21 24  2  0  0  0
 22 23  1  0  0  0
 25 27  1  0  0  0
 26 27  1  0  0  0
 26 29  1  0  0  0
 27 28  1  0  0  0
 28 29  1  0  0  0
M  END
> <s_m_entry_id>
964

> <s_m_entry_name>
10-myco-1_48_lig_gen_fit_add_gna.sdf.9

> <s_m_Source_Path>
C:\Users\maila\Downloads\mgr\myco-analysis

> <s_m_Source_File>
myco-10-var1-wzakresie.mae

> <i_m_Source_File_Index>
111

> <s_user_SMILES>
C1CCC1Cc2ccc(cc2)Cc(c3)ccc(c34)C\4=C(/C5)N=NC(N)=C5C

> <minimizedAffinity>
-8.36562

> <minimizedRMSD>
0.92718

> <CNNscore>
0.7998872995

> <CNNaffinity>
6.5838456154

> <CNN_VS>
5.2663345337

> <CNNaffinity_variance>
0.2441621572

$$$$
C1CC1c(cc2)ccc2CC3C=C[C@@H](C=34)C=C4c(c5)nnc(N)c5C
                    3D
 Schrodinger Suite 2021-1.
 27 31  0  0  1  0            999 V2000
  -24.6892  -20.2011    8.2244 C   0  0  0  0  0  0
  -25.7103  -19.8369   10.2679 C   0  0  1  0  0  0
  -25.6125  -19.4471    8.8250 C   0  0  0  0  0  0
  -24.5587  -20.6438   10.3417 C   0  0  0  0  0  0
  -24.0163  -21.0582    9.2137 C   0  0  0  0  0  0
  -24.0862  -19.5961   11.3241 C   0  0  0  0  0  0
  -25.2472  -18.8796   11.2317 C   0  0  0  0  0  0
  -22.7757  -19.3117   11.8908 C   0  0  0  0  0  0
  -20.1283  -18.7845   12.4376 C   0  0  0  0  0  0
  -21.0306  -17.7128   12.3408 C   0  0  0  0  0  0
  -20.5825  -20.0490   12.2431 N   0  0  0  0  0  0
  -18.7464  -18.5822   12.7405 N   0  0  0  0  0  0
  -20.5696  -16.2938   12.4386 C   0  0  0  0  0  0
  -22.3749  -17.9932   12.0981 C   0  0  0  0  0  0
  -21.8590  -20.3065   11.9676 N   0  0  0  0  0  0
  -18.3408  -17.6385   12.9240 H   0  0  0  0  0  0
  -18.1251  -19.4106   12.8415 H   0  0  0  0  0  0
  -23.8098  -22.5244    8.9669 C   0  0  0  0  0  0
  -22.4899  -22.8292    8.3101 C   0  0  0  0  0  0
  -20.0232  -23.4480    7.1008 C   0  0  0  0  0  0
  -21.4106  -23.2823    9.0863 C   0  0  0  0  0  0
  -21.1140  -23.0506    6.3157 C   0  0  0  0  0  0
  -22.3380  -22.7439    6.9158 C   0  0  0  0  0  0
  -20.1957  -23.6099    8.4822 C   0  0  0  0  0  0
  -17.7316  -22.5678    6.3652 C   0  0  0  0  0  0
  -17.5099  -23.6297    7.4219 C   0  0  0  0  0  0
  -18.6918  -23.7471    6.4675 C   0  0  0  0  0  0
  1  3  2  0  0  0
  1  5  1  0  0  0
  2  3  1  0  0  0
  2  4  1  0  0  0
  2  7  1  0  0  0
  4  5  2  0  0  0
  4  6  1  0  0  0
  5 18  1  0  0  0
  6  8  1  0  0  0
  6  7  2  0  0  0
  8 14  2  0  0  0
  8 15  1  0  0  0
  9 10  2  0  0  0
  9 11  1  0  0  0
  9 12  1  0  0  0
 10 13  1  0  0  0
 10 14  1  0  0  0
 11 15  2  0  0  0
 12 16  1  0  0  0
 12 17  1  0  0  0
 18 19  1  0  0  0
 19 21  2  0  0  0
 19 23  1  0  0  0
 20 22  1  0  0  0
 20 24  2  0  0  0
 20 27  1  0  0  0
 21 24  1  0  0  0
 22 23  2  0  0  0
 25 26  1  0  0  0
 25 27  1  0  0  0
 26 27  1  0  0  0
M  END
> <s_m_entry_id>
965

> <s_m_entry_name>
10-myco-1_48_lig_gen_fit_add_gna.sdf.10

> <s_m_Source_Path>
C:\Users\maila\Downloads\mgr\myco-analysis

> <s_m_Source_File>
myco-10-var1-wzakresie.mae

> <i_m_Source_File_Index>
112

> <s_user_SMILES>
C1CC1c(cc2)ccc2CC3C=C[C@@H](C=34)C=C4c(c5)nnc(N)c5C

> <minimizedAffinity>
-9.68613

> <minimizedRMSD>
0.37386

> <CNNscore>
0.9383512139

> <CNNaffinity>
6.8859291077

> <CNN_VS>
6.4614200592

> <CNNaffinity_variance>
0.115382947

$$$$
CC1=C(CN)N=C2[C]1(C234)=C3c5c4n(cc5)Cc6ccc(cc6)CN7CCCCC7
                    3D
 Schrodinger Suite 2021-1.
 31 37  0  0  1  0            999 V2000
  -20.7194  -17.4587   12.5921 C   0  0  0  0  0  0
  -19.5624  -18.1339   12.7899 C   0  0  0  0  0  0
  -24.0915  -18.8198   11.6902 C   0  0  0  0  0  0
  -19.6088  -19.5053   12.3527 N   0  0  0  0  0  0
  -21.7242  -18.2637   11.8253 C   0  0  0  0  0  0
  -23.3603  -19.9784   11.5489 C   0  0  0  0  0  0
  -23.0209  -18.2111   12.5198 C   0  0  0  0  0  0
  -25.1811  -20.2960   10.5324 C   0  0  0  0  0  0
  -20.8269  -19.4404   11.9805 C   0  0  0  0  0  0
  -23.9960  -20.9274   10.8566 N   0  0  0  0  0  0
  -20.8812  -16.0041   12.8526 C   0  0  0  0  0  0
  -25.2754  -18.9595   11.0300 C   0  0  0  0  0  0
  -22.2963  -19.4360   12.4616 C   0  0  0  0  0  0
  -17.3583  -17.1664   12.4928 N   0  0  0  0  0  0
  -18.3766  -17.5049   13.4576 C   0  0  0  0  0  0
  -16.5059  -16.8876   13.0273 H   0  0  0  0  0  0
  -17.6931  -16.3177   11.9803 H   0  0  0  0  0  0
  -23.7753  -22.3701   10.8790 C   0  0  0  0  0  0
  -22.8200  -22.8241    9.8047 C   0  0  0  0  0  0
  -21.4935  -23.1235   10.1476 C   0  0  0  0  0  0
  -22.3598  -23.5733    7.5339 C   0  0  0  0  0  0
  -23.2580  -23.0874    8.4946 C   0  0  0  0  0  0
  -21.0150  -23.8049    7.8725 C   0  0  0  0  0  0
  -20.5978  -23.5925    9.1899 C   0  0  0  0  0  0
  -20.0169  -24.2351    6.8295 C   0  0  0  0  0  0
  -18.8065  -27.3646    7.0571 C   0  0  0  0  0  0
  -19.5216  -27.2483    4.6026 C   0  0  0  0  0  0
  -19.6659  -25.7641    4.9648 C   0  0  0  0  0  0
  -18.6987  -28.0009    5.6613 C   0  0  0  0  0  0
  -20.3651  -25.5562    6.2607 N   0  0  0  0  0  0
  -20.1567  -26.6589    7.2393 C   0  0  0  0  0  0
  1  2  2  0  0  0
  1  5  1  0  0  0
  1 11  1  0  0  0
  2  4  1  0  0  0
  2 15  1  0  0  0
  3  6  2  0  0  0
  3  7  1  0  0  0
  3 12  1  0  0  0
  4  9  2  0  0  0
  5  7  2  0  0  0
  5  9  1  0  0  0
  5 13  1  0  0  0
  6 10  1  0  0  0
  6 13  1  0  0  0
  7 13  1  0  0  0
  8 10  1  0  0  0
  8 12  2  0  0  0
  9 13  1  0  0  0
 10 18  1  0  0  0
 14 15  1  0  0  0
 14 16  1  0  0  0
 14 17  1  0  0  0
 18 19  1  0  0  0
 19 20  2  0  0  0
 19 22  1  0  0  0
 20 24  1  0  0  0
 21 22  2  0  0  0
 21 23  1  0  0  0
 23 25  1  0  0  0
 23 24  2  0  0  0
 25 30  1  0  0  0
 26 29  1  0  0  0
 26 31  1  0  0  0
 27 28  1  0  0  0
 27 29  1  0  0  0
 28 30  1  0  0  0
 30 31  1  0  0  0
M  END
> <s_m_entry_id>
966

> <s_m_entry_name>
10-myco-1_49_lig_gen_fit_add_gna.sdf.1

> <s_m_Source_Path>
C:\Users\maila\Downloads\mgr\myco-analysis

> <s_m_Source_File>
myco-10-var1-wzakresie.mae

> <i_m_Source_File_Index>
113

> <s_user_SMILES>
CC1=C(CN)N=C2[C]1(C234)=C3c5c4n(cc5)Cc6ccc(cc6)CN7CCCCC7

> <minimizedAffinity>
-9.80377

> <minimizedRMSD>
0.79082

> <CNNscore>
0.9421019554

> <CNNaffinity>
6.9732255936

> <CNN_VS>
6.5694894791

> <CNNaffinity_variance>
0.1303658485

$$$$
O=C1N=CC(=C1C#N)C(C2)=Cc(c23)n(cc3)Cc4ccc(cc4)CN5CCNCC5
                    3D
 Schrodinger Suite 2021-1.
 31 35  0  0  1  0            999 V2000
  -23.8456  -19.0751   11.7735 C   0  0  0  0  0  0
  -23.2997  -20.2959   11.6791 C   0  0  0  0  0  0
  -25.0908  -20.3379   10.4965 C   0  0  0  0  0  0
  -22.8490  -18.0538   12.1640 C   0  0  0  0  0  0
  -21.6168  -18.9053   12.2477 C   0  0  0  0  0  0
  -24.9911  -19.0524   11.0154 C   0  0  0  0  0  0
  -21.8802  -20.2042   11.9866 C   0  0  0  0  0  0
  -24.0198  -21.0917   10.8537 N   0  0  0  0  0  0
  -19.9568  -17.0663   12.7597 C   0  0  0  0  0  0
  -20.2746  -18.3489   12.5210 C   0  0  0  0  0  0
  -19.0655  -19.1902   12.5601 C   0  0  0  0  0  0
  -18.0401  -18.4182   12.8376 N   0  0  0  0  0  0
  -17.8453  -16.0597   13.3333 O   0  0  0  0  0  0
  -18.5472  -17.0468   12.9975 C   0  0  0  0  0  0
  -20.7851  -15.8972   12.7035 C   0  0  0  0  0  0
  -21.4289  -14.9399   12.6520 N   0  0  0  0  0  0
  -23.9328  -22.5404   10.6334 C   0  0  0  0  0  0
  -20.9146  -23.6982    7.7720 C   0  0  0  0  0  0
  -22.8833  -22.9226    9.6297 C   0  0  0  0  0  0
  -22.2167  -23.3923    7.3391 C   0  0  0  0  0  0
  -20.6320  -23.6825    9.1472 C   0  0  0  0  0  0
  -21.6116  -23.3105   10.0673 C   0  0  0  0  0  0
  -23.1870  -22.9796    8.2609 C   0  0  0  0  0  0
  -19.7966  -23.9097    6.7704 C   0  0  0  0  0  0
  -19.7403  -27.7085    6.8828 C   0  0  0  0  0  0
  -19.6198  -26.9909    4.5796 C   0  0  0  0  0  0
  -19.5933  -25.3144    6.3606 N   0  0  0  0  0  0
  -20.0495  -25.5782    4.9882 C   0  0  0  0  0  0
  -20.1568  -26.2966    7.3047 C   0  0  0  0  0  0
  -20.1837  -27.9793    5.5086 N   0  0  0  0  0  0
  -19.8217  -28.9221    5.2335 H   0  0  0  0  0  0
  1  2  2  0  0  0
  1  4  1  0  0  0
  1  6  1  0  0  0
  2  7  1  0  0  0
  2  8  1  0  0  0
  3  6  2  0  0  0
  3  8  1  0  0  0
  4  5  1  0  0  0
  5 10  1  0  0  0
  5  7  2  0  0  0
  8 17  1  0  0  0
  9 10  2  0  0  0
  9 15  1  0  0  0
  9 14  1  0  0  0
 10 11  1  0  0  0
 11 12  2  0  0  0
 12 14  1  0  0  0
 13 14  2  0  0  0
 15 16  3  0  0  0
 17 19  1  0  0  0
 18 20  2  0  0  0
 18 21  1  0  0  0
 18 24  1  0  0  0
 19 22  1  0  0  0
 19 23  2  0  0  0
 20 23  1  0  0  0
 21 22  2  0  0  0
 24 27  1  0  0  0
 25 29  1  0  0  0
 25 30  1  0  0  0
 26 28  1  0  0  0
 26 30  1  0  0  0
 27 28  1  0  0  0
 27 29  1  0  0  0
 30 31  1  0  0  0
M  END
> <s_m_entry_id>
967

> <s_m_entry_name>
10-myco-1_49_lig_gen_fit_add_gna.sdf.4

> <s_m_Source_Path>
C:\Users\maila\Downloads\mgr\myco-analysis

> <s_m_Source_File>
myco-10-var1-wzakresie.mae

> <i_m_Source_File_Index>
114

> <s_user_SMILES>
O=C1N=CC(=C1C#N)C(C2)=Cc(c23)n(cc3)Cc4ccc(cc4)CN5CCNCC5

> <minimizedAffinity>
-9.73862

> <minimizedRMSD>
0.70738

> <CNNscore>
0.9668933153

> <CNNaffinity>
7.0240831375

> <CNN_VS>
6.7915391922

> <CNNaffinity_variance>
0.0607219823

$$$$
CCCCCCc1ccc(cc1)CC2CC=C(C=23)C=C3C4=C(N)C(N)=NC4=O
                    3D
 Schrodinger Suite 2021-1.
 32 35  0  0  1  0            999 V2000
  -23.9801  -21.2676   10.9658 C   0  0  0  0  0  0
  -24.6009  -19.1601   11.3417 C   0  0  0  0  0  0
  -23.7351  -18.1868   11.9841 C   0  0  0  0  0  0
  -23.5985  -20.0918   11.4097 C   0  0  0  0  0  0
  -22.7172  -19.0680   11.9854 C   0  0  0  0  0  0
  -25.7015  -19.5977   10.7920 C   0  0  0  0  0  0
  -25.4284  -21.0765   10.5072 C   0  0  0  0  0  0
  -19.1122  -18.2932   12.2552 C   0  0  0  0  0  0
  -20.5185  -17.8909   12.3736 C   0  0  0  0  0  0
  -21.2718  -18.9811   12.2448 C   0  0  0  0  0  0
  -20.3199  -20.0539   12.0273 C   0  0  0  0  0  0
  -20.6128  -21.2541   11.7883 O   0  0  0  0  0  0
  -17.9885  -17.4222   12.3642 N   0  0  0  0  0  0
  -18.9860  -19.5607   12.0480 N   0  0  0  0  0  0
  -20.9878  -16.5493   12.4979 N   0  0  0  0  0  0
  -18.1182  -16.4129   12.5813 H   0  0  0  0  0  0
  -17.0190  -17.7960   12.2613 H   0  0  0  0  0  0
  -20.3379  -15.7435   12.3691 H   0  0  0  0  0  0
  -21.9577  -16.3543   12.8168 H   0  0  0  0  0  0
  -23.2648  -22.5708   11.1350 C   0  0  0  0  0  0
  -22.3267  -23.3106    7.4811 C   0  0  0  0  0  0
  -21.3492  -24.3125    7.6554 C   0  0  0  0  0  0
  -22.6108  -23.1290    9.8931 C   0  0  0  0  0  0
  -21.6583  -24.1448   10.0602 C   0  0  0  0  0  0
  -22.9402  -22.7160    8.5886 C   0  0  0  0  0  0
  -21.0331  -24.7249    8.9575 C   0  0  0  0  0  0
  -20.6639  -25.0213    6.5045 C   0  0  0  0  0  0
  -19.4884  -24.2550    5.8774 C   0  0  0  0  0  0
  -18.2434  -24.2600    6.7810 C   0  0  0  0  0  0
  -18.0225  -22.9007    7.4667 C   0  0  0  0  0  0
  -17.4178  -21.0963    5.7659 C   0  0  0  0  0  0
  -16.8995  -22.0838    6.8108 C   0  0  0  0  0  0
  1  4  2  0  0  0
  1 20  1  0  0  0
  1  7  1  0  0  0
  2  3  1  0  0  0
  2  4  1  0  0  0
  2  6  2  0  0  0
  3  5  2  0  0  0
  4  5  1  0  0  0
  5 10  1  0  0  0
  6  7  1  0  0  0
  8  9  1  0  0  0
  8 13  1  0  0  0
  8 14  2  0  0  0
  9 10  2  0  0  0
  9 15  1  0  0  0
 10 11  1  0  0  0
 11 12  2  0  0  0
 11 14  1  0  0  0
 13 16  1  0  0  0
 13 17  1  0  0  0
 15 18  1  0  0  0
 15 19  1  0  0  0
 20 23  1  0  0  0
 21 22  2  0  0  0
 21 25  1  0  0  0
 22 26  1  0  0  0
 22 27  1  0  0  0
 23 24  1  0  0  0
 23 25  2  0  0  0
 24 26  2  0  0  0
 27 28  1  0  0  0
 28 29  1  0  0  0
 29 30  1  0  0  0
 30 32  1  0  0  0
 31 32  1  0  0  0
M  END
> <s_m_entry_id>
968

> <s_m_entry_name>
10-myco-1_49_lig_gen_fit_add_gna.sdf.6

> <s_m_Source_Path>
C:\Users\maila\Downloads\mgr\myco-analysis

> <s_m_Source_File>
myco-10-var1-wzakresie.mae

> <i_m_Source_File_Index>
115

> <s_user_SMILES>
CCCCCCc1ccc(cc1)CC2CC=C(C=23)C=C3C4=C(N)C(N)=NC4=O

> <minimizedAffinity>
-9.30715

> <minimizedRMSD>
1.91499

> <CNNscore>
0.7608801126

> <CNNaffinity>
7.0562310219

> <CNN_VS>
5.3689460754

> <CNNaffinity_variance>
0.0766883343

$$$$
C1CNCCC1c(cc2)ccc2CC3=CC=C(C3=4)CC(N4)=[C]56C(C5=N)=C(N)N=C6
                    3D
 Schrodinger Suite 2021-1.
 33 38  0  0  1  0            999 V2000
  -23.8056  -19.7808   10.9367 C   0  0  0  0  0  0
  -18.8973  -18.4777   13.1918 C   0  0  0  0  0  0
  -23.6302  -18.6010   11.7875 C   0  0  0  0  0  0
  -20.0998  -18.0579   13.0900 C   0  0  0  0  0  0
  -24.8242  -20.2572   10.2389 C   0  0  0  0  0  0
  -22.4507  -19.0556   12.7112 C   0  0  0  0  0  0
  -20.1503  -19.2812   11.5559 C   0  0  0  0  0  0
  -22.3874  -20.5300   12.5237 N   0  0  0  0  0  0
  -23.0341  -20.8222   11.4437 C   0  0  0  0  0  0
  -18.9467  -19.3470   12.0828 N   0  0  0  0  0  0
  -23.5870  -22.0656   10.9314 C   0  0  0  0  0  0
  -21.1590  -18.3503   12.2022 C   0  0  0  0  0  0
  -17.8130  -17.5811   13.3997 N   0  0  0  0  0  0
  -24.6518  -21.7233   10.1944 C   0  0  0  0  0  0
  -21.3451  -15.7210   12.6277 N   0  0  0  0  0  0
  -21.0253  -16.9654   12.5981 C   0  0  0  0  0  0
  -17.8804  -16.8408   14.1287 H   0  0  0  0  0  0
  -17.0211  -17.5524   12.7264 H   0  0  0  0  0  0
  -22.1679  -15.3730   12.1180 H   0  0  0  0  0  0
  -23.0885  -23.4606   11.1504 C   0  0  0  0  0  0
  -20.1262  -24.8874    8.3248 C   0  0  0  0  0  0
  -22.0840  -23.9366   10.1252 C   0  0  0  0  0  0
  -21.7083  -23.1663    9.0084 C   0  0  0  0  0  0
  -20.5774  -25.6936    9.3802 C   0  0  0  0  0  0
  -21.5544  -25.2290   10.2601 C   0  0  0  0  0  0
  -20.7310  -23.6335    8.1234 C   0  0  0  0  0  0
  -19.3850  -25.4321    5.9686 C   0  0  0  0  0  0
  -16.6074  -24.9794    6.7159 C   0  0  0  0  0  0
  -18.9831  -25.3656    7.4510 C   0  0  0  0  0  0
  -18.1908  -25.8841    5.1195 C   0  0  0  0  0  0
  -17.7334  -24.4853    7.6309 C   0  0  0  0  0  0
  -17.0471  -24.9825    5.3140 N   0  0  0  0  0  0
  -16.2549  -25.3407    4.7312 H   0  0  0  0  0  0
  1  3  1  0  0  0
  1  5  2  0  0  0
  1  9  1  0  0  0
  2  4  2  0  0  0
  2 10  1  0  0  0
  2 13  1  0  0  0
  3  6  1  0  0  0
  4 12  1  0  0  0
  4 16  1  0  0  0
  5 14  1  0  0  0
  6  8  1  0  0  0
  6 12  2  0  0  0
  7 10  2  0  0  0
  7 12  1  0  0  0
  8  9  2  0  0  0
  9 11  1  0  0  0
 11 20  1  0  0  0
 11 14  2  0  0  0
 12 16  1  0  0  0
 13 17  1  0  0  0
 13 18  1  0  0  0
 15 16  2  0  0  0
 15 19  1  0  0  0
 20 22  1  0  0  0
 21 24  2  0  0  0
 21 29  1  0  0  0
 21 26  1  0  0  0
 22 23  1  0  0  0
 22 25  2  0  0  0
 23 26  2  0  0  0
 24 25  1  0  0  0
 27 29  1  0  0  0
 27 30  1  0  0  0
 28 31  1  0  0  0
 28 32  1  0  0  0
 29 31  1  0  0  0
 30 32  1  0  0  0
 32 33  1  0  0  0
M  END
> <s_m_entry_id>
969

> <s_m_entry_name>
10-myco-1_49_lig_gen_fit_add_gna.sdf.7

> <s_m_Source_Path>
C:\Users\maila\Downloads\mgr\myco-analysis

> <s_m_Source_File>
myco-10-var1-wzakresie.mae

> <i_m_Source_File_Index>
116

> <s_user_SMILES>
C1CNCCC1c(cc2)ccc2CC3=CC=C(C3=4)CC(N4)=[C]56C(C5=N)=C(N)N=C6

> <minimizedAffinity>
-9.35813

> <minimizedRMSD>
0.50442

> <CNNscore>
0.7324556708

> <CNNaffinity>
6.7966346741

> <CNN_VS>
4.9782338142

> <CNNaffinity_variance>
0.0784812048

$$$$
N#Cc1c(N)nnc2c1[C]2=3C4=[C]5(CC3)C4=C(C=C5)Cc6ccc(cc6)Cn7cccc7
                    3D
 Schrodinger Suite 2021-1.
 33 39  0  0  1  0            999 V2000
  -24.1032  -20.8273   11.2357 C   0  0  0  0  0  0
  -19.0153  -18.3336   12.7145 C   0  0  0  0  0  0
  -21.2951  -18.6729   12.6860 C   0  0  0  0  0  0
  -22.8781  -21.5306   10.7176 C   0  0  0  0  0  0
  -20.3272  -17.8083   13.0776 C   0  0  0  0  0  0
  -22.6381  -22.4209    9.8138 C   0  0  0  0  0  0
  -18.8601  -19.5563   12.0208 N   0  0  0  0  0  0
  -21.0336  -19.8565   11.9777 C   0  0  0  0  0  0
  -22.9432  -20.9426   12.1092 C   0  0  0  0  0  0
  -24.0755  -22.5572    9.5398 C   0  0  0  0  0  0
  -24.8575  -21.8041   10.3557 C   0  0  0  0  0  0
  -23.2027  -18.7013   11.3620 C   0  0  0  0  0  0
  -24.1367  -19.4209   10.7652 C   0  0  0  0  0  0
  -19.8764  -20.3556   11.6127 N   0  0  0  0  0  0
  -17.8404  -17.5834   13.0119 N   0  0  0  0  0  0
  -22.3819  -19.5138   12.2844 C   0  0  0  0  0  0
  -17.8852  -16.7042   13.5627 H   0  0  0  0  0  0
  -16.9057  -17.9475   12.7284 H   0  0  0  0  0  0
  -20.8156  -15.2708   13.2139 N   0  0  0  0  0  0
  -20.5960  -16.4048   13.1756 C   0  0  0  0  0  0
  -21.7464  -23.5955   10.0869 C   0  0  0  0  0  0
  -19.5565  -25.3062    6.7919 C   0  0  0  0  0  0
  -20.3515  -24.1732    6.5641 C   0  0  0  0  0  0
  -21.1366  -24.2418    8.8656 C   0  0  0  0  0  0
  -19.6437  -25.9677    8.0240 C   0  0  0  0  0  0
  -21.1295  -23.6373    7.5936 C   0  0  0  0  0  0
  -20.4340  -25.4427    9.0478 C   0  0  0  0  0  0
  -18.5996  -25.7949    5.7400 C   0  0  0  0  0  0
  -19.2703  -28.1075    5.0692 C   0  0  0  0  0  0
  -20.3654  -27.7004    3.1872 C   0  0  0  0  0  0
  -19.9548  -28.7120    4.0366 C   0  0  0  0  0  0
  -19.2444  -26.7758    4.8748 N   0  0  0  0  0  0
  -19.9162  -26.5171    3.7372 C   0  0  0  0  0  0
  1  4  1  0  0  0
  1  9  2  0  0  0
  1 11  1  0  0  0
  1 13  1  0  0  0
  2  5  2  0  0  0
  2  7  1  0  0  0
  2 15  1  0  0  0
  3  5  1  0  0  0
  3  8  2  0  0  0
  3 16  1  0  0  0
  4  6  2  0  0  0
  4  9  1  0  0  0
  5 20  1  0  0  0
  6 10  1  0  0  0
  6 21  1  0  0  0
  7 14  2  0  0  0
  8 14  1  0  0  0
  8 16  1  0  0  0
  9 16  1  0  0  0
 10 11  2  0  0  0
 12 13  1  0  0  0
 12 16  2  0  0  0
 15 17  1  0  0  0
 15 18  1  0  0  0
 19 20  3  0  0  0
 21 24  1  0  0  0
 22 23  2  0  0  0
 22 25  1  0  0  0
 22 28  1  0  0  0
 23 26  1  0  0  0
 24 26  2  0  0  0
 24 27  1  0  0  0
 25 27  2  0  0  0
 28 32  1  0  0  0
 29 31  2  0  0  0
 29 32  1  0  0  0
 30 31  1  0  0  0
 30 33  2  0  0  0
 32 33  1  0  0  0
M  END
> <s_m_entry_id>
970

> <s_m_entry_name>
10-myco-1_49_lig_gen_fit_add_gna.sdf.8

> <s_m_Source_Path>
C:\Users\maila\Downloads\mgr\myco-analysis

> <s_m_Source_File>
myco-10-var1-wzakresie.mae

> <i_m_Source_File_Index>
117

> <s_user_SMILES>
N#Cc1c(N)nnc2c1[C]2=3C4=[C]5(CC3)C4=C(C=C5)Cc6ccc(cc6)Cn7cccc7

> <minimizedAffinity>
-9.15818

> <minimizedRMSD>
0.40153

> <CNNscore>
0.9425415993

> <CNNaffinity>
7.2368707657

> <CNN_VS>
6.8210515976

> <CNNaffinity_variance>
0.1219736561

$$$$
c12c(N2)ncc(c1C#N)-c(ccc3)cc3Cc(cc4)ccc4[C@H](C)CC
                    3D
 Schrodinger Suite 2021-1.
 27 30  0  0  1  0            999 V2000
  -22.3880  -20.5177   11.7632 C   0  0  0  0  0  0
  -23.2707  -18.2885   11.9821 C   0  0  0  0  0  0
  -23.5973  -20.9564   11.1969 C   0  0  0  0  0  0
  -24.5115  -18.7535   11.5298 C   0  0  0  0  0  0
  -22.1571  -19.1424   12.0642 C   0  0  0  0  0  0
  -24.6623  -20.0618   11.0917 C   0  0  0  0  0  0
  -19.6498  -19.6124   12.2675 C   0  0  0  0  0  0
  -18.2211  -18.1369   13.0847 C   0  0  0  0  0  0
  -19.1500  -17.1550   13.2241 C   0  0  0  0  0  0
  -18.3295  -19.3590   12.6124 N   0  0  0  0  0  0
  -20.7624  -18.6371   12.4076 C   0  0  0  0  0  0
  -17.8287  -16.9077   13.6146 N   0  0  0  0  0  0
  -20.4482  -17.2681   12.8699 C   0  0  0  0  0  0
  -17.0915  -16.2852   14.0034 H   0  0  0  0  0  0
  -21.6342  -15.0050   12.5522 N   0  0  0  0  0  0
  -21.1474  -16.0427   12.6770 C   0  0  0  0  0  0
  -23.7740  -22.3948   10.7633 C   0  0  0  0  0  0
  -21.0284  -23.5522    7.6257 C   0  0  0  0  0  0
  -22.8281  -22.7876    9.6641 C   0  0  0  0  0  0
  -20.7060  -23.7477    8.9857 C   0  0  0  0  0  0
  -23.1999  -22.6790    8.3170 C   0  0  0  0  0  0
  -22.3030  -23.0430    7.3087 C   0  0  0  0  0  0
  -21.5864  -23.3491    9.9885 C   0  0  0  0  0  0
  -20.5109  -25.1994    5.8221 C   0  0  0  0  0  0
  -20.0623  -23.8884    6.4910 C   0  0  2  0  0  0
  -18.5762  -23.9438    6.9419 C   0  0  0  0  0  0
  -17.8440  -22.6057    6.8377 C   0  0  0  0  0  0
  1  3  2  0  0  0
  1  5  1  0  0  0
  2  4  1  0  0  0
  2  5  2  0  0  0
  3 17  1  0  0  0
  3  6  1  0  0  0
  4  6  2  0  0  0
  5 11  1  0  0  0
  7 10  2  0  0  0
  7 11  1  0  0  0
  8  9  2  0  0  0
  8 10  1  0  0  0
  8 12  1  0  0  0
  9 12  1  0  0  0
  9 13  1  0  0  0
 11 13  2  0  0  0
 12 14  1  0  0  0
 13 16  1  0  0  0
 15 16  3  0  0  0
 17 19  1  0  0  0
 18 20  2  0  0  0
 18 22  1  0  0  0
 18 25  1  0  0  0
 19 21  1  0  0  0
 19 23  2  0  0  0
 20 23  1  0  0  0
 21 22  2  0  0  0
 24 25  1  0  0  0
 25 26  1  0  0  0
 26 27  1  0  0  0
M  END
> <s_m_entry_id>
971

> <s_m_entry_name>
10-myco-1_49_lig_gen_fit_add_gna.sdf.9

> <s_m_Source_Path>
C:\Users\maila\Downloads\mgr\myco-analysis

> <s_m_Source_File>
myco-10-var1-wzakresie.mae

> <i_m_Source_File_Index>
118

> <s_user_SMILES>
c12c(N2)ncc(c1C#N)-c(ccc3)cc3Cc(cc4)ccc4[C@H](C)CC

> <minimizedAffinity>
-8.8535

> <minimizedRMSD>
1.0306

> <CNNscore>
0.9198378921

> <CNNaffinity>
6.8506507874

> <CNN_VS>
6.3014883995

> <CNNaffinity_variance>
0.0764966756

$$$$
CCCCCc1ccc(cc1)Cn(cc2)c(c23)C=C(C3)c(c4C)n[nH]c4N
                    3D
 Schrodinger Suite 2021-1.
 30 33  0  0  1  0            999 V2000
  -24.2314  -19.4237   11.3303 C   0  0  0  0  0  0
  -23.6628  -20.6040   11.5613 C   0  0  0  0  0  0
  -23.3650  -18.3281   11.8142 C   0  0  0  0  0  0
  -25.1754  -20.9782   10.1106 C   0  0  0  0  0  0
  -24.1884  -21.5821   10.8282 N   0  0  0  0  0  0
  -25.2076  -19.6048   10.3774 C   0  0  0  0  0  0
  -22.3629  -20.4546   12.1218 C   0  0  0  0  0  0
  -22.1707  -19.1483   12.2778 C   0  0  0  0  0  0
  -19.0888  -17.4331   12.9629 C   0  0  0  0  0  0
  -20.4507  -17.3322   12.7857 C   0  0  0  0  0  0
  -20.8399  -18.6382   12.5767 C   0  0  0  0  0  0
  -18.7022  -18.7026   12.8373 N   0  0  0  0  0  0
  -21.2908  -16.0985   12.7610 C   0  0  0  0  0  0
  -18.1796  -16.3595   12.9881 N   0  0  0  0  0  0
  -19.7618  -19.4433   12.5959 N   0  0  0  0  0  0
  -17.7244  -19.0452   12.7831 H   0  0  0  0  0  0
  -17.2093  -16.4964   13.3457 H   0  0  0  0  0  0
  -18.3981  -15.5837   12.3420 H   0  0  0  0  0  0
  -23.6459  -22.9405   10.7424 C   0  0  0  0  0  0
  -22.7737  -23.1649    9.5283 C   0  0  0  0  0  0
  -20.5547  -23.6483    8.6606 C   0  0  0  0  0  0
  -22.3301  -23.0266    7.1378 C   0  0  0  0  0  0
  -20.9942  -23.3904    7.3536 C   0  0  0  0  0  0
  -23.2101  -22.9002    8.2148 C   0  0  0  0  0  0
  -21.4396  -23.5459    9.7354 C   0  0  0  0  0  0
  -20.0213  -23.4175    6.2032 C   0  0  0  0  0  0
  -19.1354  -22.1629    6.1744 C   0  0  0  0  0  0
  -17.7228  -22.4282    6.7248 C   0  0  0  0  0  0
  -17.3063  -20.1648    5.6292 C   0  0  0  0  0  0
  -16.8218  -21.1864    6.6568 C   0  0  0  0  0  0
  1  2  2  0  0  0
  1  3  1  0  0  0
  1  6  1  0  0  0
  2  5  1  0  0  0
  2  7  1  0  0  0
  3  8  1  0  0  0
  4  5  1  0  0  0
  4  6  2  0  0  0
  5 19  1  0  0  0
  7  8  2  0  0  0
  8 11  1  0  0  0
  9 10  2  0  0  0
  9 12  1  0  0  0
  9 14  1  0  0  0
 10 11  1  0  0  0
 10 13  1  0  0  0
 11 15  2  0  0  0
 12 15  1  0  0  0
 12 16  1  0  0  0
 14 17  1  0  0  0
 14 18  1  0  0  0
 19 20  1  0  0  0
 20 24  2  0  0  0
 20 25  1  0  0  0
 21 23  1  0  0  0
 21 25  2  0  0  0
 22 23  2  0  0  0
 22 24  1  0  0  0
 23 26  1  0  0  0
 26 27  1  0  0  0
 27 28  1  0  0  0
 28 30  1  0  0  0
 29 30  1  0  0  0
M  END
> <s_m_entry_id>
972

> <s_m_entry_name>
10-myco-1_50_lig_gen_fit_add_gna.sdf.1

> <s_m_Source_Path>
C:\Users\maila\Downloads\mgr\myco-analysis

> <s_m_Source_File>
myco-10-var1-wzakresie.mae

> <i_m_Source_File_Index>
119

> <s_user_SMILES>
CCCCCc1ccc(cc1)Cn(cc2)c(c23)C=C(C3)c(c4C)n[nH]c4N

> <minimizedAffinity>
-9.98235

> <minimizedRMSD>
1.28339

> <CNNscore>
0.9821606874

> <CNNaffinity>
7.1706175804

> <CNN_VS>
7.0426988602

> <CNNaffinity_variance>
0.1559155881

$$$$
CCCCc1ccc(cc1)NC2C=Cc(c3)c=2nc(c34)N=C(N)C=4C
                    3D
 Schrodinger Suite 2021-1.
 28 31  0  0  1  0            999 V2000
  -22.9387  -20.3542   11.6703 C   0  0  0  0  0  0
  -24.9310  -19.3090   11.2115 C   0  0  0  0  0  0
  -20.6177  -17.2687   12.7884 C   0  0  0  0  0  0
  -19.3597  -18.0213   12.8246 C   0  0  0  0  0  0
  -22.9110  -17.9780   12.1576 C   0  0  0  0  0  0
  -20.9360  -19.3803   12.3473 C   0  0  0  0  0  0
  -19.5324  -19.2778   12.5550 N   0  0  0  0  0  0
  -25.0308  -20.5878   10.8406 C   0  0  0  0  0  0
  -21.5513  -18.1481   12.4619 C   0  0  0  0  0  0
  -18.0798  -17.4555   13.1024 N   0  0  0  0  0  0
  -21.6085  -20.4979   11.9454 N   0  0  0  0  0  0
  -23.5872  -19.1337   11.7520 C   0  0  0  0  0  0
  -23.7584  -21.2536   11.1565 C   0  0  0  0  0  0
  -20.7701  -15.7985   12.9245 C   0  0  0  0  0  0
  -17.9740  -16.4354   13.2915 H   0  0  0  0  0  0
  -17.2295  -18.0546   13.1232 H   0  0  0  0  0  0
  -23.4065  -22.5968   10.8197 N   0  0  0  0  0  0
  -23.4851  -23.3118   11.5777 H   0  0  0  0  0  0
  -21.3795  -23.4202    9.7119 C   0  0  0  0  0  0
  -20.6275  -23.6594    8.5586 C   0  0  0  0  0  0
  -21.1744  -23.4076    7.2913 C   0  0  0  0  0  0
  -23.2573  -22.7349    8.3452 C   0  0  0  0  0  0
  -22.5002  -22.9599    7.1931 C   0  0  0  0  0  0
  -22.6907  -22.9306    9.6182 C   0  0  0  0  0  0
  -20.3264  -23.5534    6.0525 C   0  0  0  0  0  0
  -18.8225  -23.4951    6.3662 C   0  0  0  0  0  0
  -17.1191  -21.8250    7.2038 C   0  0  0  0  0  0
  -18.2393  -22.0834    6.2006 C   0  0  0  0  0  0
  1 11  1  0  0  0
  1 12  1  0  0  0
  1 13  2  0  0  0
  2  8  2  0  0  0
  2 12  1  0  0  0
  3  4  1  0  0  0
  3  9  2  0  0  0
  3 14  1  0  0  0
  4  7  2  0  0  0
  4 10  1  0  0  0
  5  9  1  0  0  0
  5 12  2  0  0  0
  6  7  1  0  0  0
  6  9  1  0  0  0
  6 11  2  0  0  0
  8 13  1  0  0  0
 10 15  1  0  0  0
 10 16  1  0  0  0
 13 17  1  0  0  0
 17 24  1  0  0  0
 17 18  1  0  0  0
 19 20  2  0  0  0
 19 24  1  0  0  0
 20 21  1  0  0  0
 21 23  2  0  0  0
 21 25  1  0  0  0
 22 23  1  0  0  0
 22 24  2  0  0  0
 25 26  1  0  0  0
 26 28  1  0  0  0
 27 28  1  0  0  0
M  END
> <s_m_entry_id>
973

> <s_m_entry_name>
10-myco-1_50_lig_gen_fit_add_gna.sdf.2

> <s_m_Source_Path>
C:\Users\maila\Downloads\mgr\myco-analysis

> <s_m_Source_File>
myco-10-var1-wzakresie.mae

> <i_m_Source_File_Index>
120

> <s_user_SMILES>
CCCCc1ccc(cc1)NC2C=Cc(c3)c=2nc(c34)N=C(N)C=4C

> <minimizedAffinity>
-10.2345

> <minimizedRMSD>
0.89818

> <CNNscore>
0.9920359254

> <CNNaffinity>
7.1090445518

> <CNN_VS>
7.0524277687

> <CNNaffinity_variance>
0.212606594

$$$$
C1=NC(N)=C(C#N)[C]12=CC=3C(=C2)N(C=CC3)CC(C4)C=C5C=4C56C7(C6)C89C(N79)(C)C8
                    3D
 Schrodinger Suite 2021-1.
 32 40  0  0  1  0            999 V2000
  -20.6809  -18.2444   13.2160 C   0  0  0  0  0  0
  -25.5140  -21.1624   10.7351 C   0  0  0  0  0  0
  -19.4526  -18.6624   12.9595 C   0  0  0  0  0  0
  -22.8054  -18.0826   11.9267 C   0  0  0  0  0  0
  -23.5055  -20.3330   11.8965 C   0  0  0  0  0  0
  -19.4629  -19.4975   11.7653 N   0  0  0  0  0  0
  -23.8611  -19.0147   11.4937 C   0  0  0  0  0  0
  -21.6436  -19.0100   12.3194 C   0  0  0  0  0  0
  -18.2588  -18.0176   13.4155 N   0  0  0  0  0  0
  -20.6722  -19.4670   11.2734 C   0  0  0  0  0  0
  -25.0232  -18.7661   10.8933 C   0  0  0  0  0  0
  -22.3623  -20.3252   12.5922 C   0  0  0  0  0  0
  -25.9097  -19.8940   10.5432 C   0  0  0  0  0  0
  -24.2253  -21.4513   11.3283 N   0  0  0  0  0  0
  -18.2727  -17.3673   14.2302 H   0  0  0  0  0  0
  -17.3481  -18.2053   12.9469 H   0  0  0  0  0  0
  -20.8110  -16.8130   13.4162 C   0  0  0  0  0  0
  -20.8477  -15.6623   13.5298 N   0  0  0  0  0  0
  -23.6001  -22.7475   11.0600 C   0  0  0  0  0  0
  -23.1595  -22.4396    8.5211 C   0  0  0  0  0  0
  -22.3621  -23.2267    7.8920 C   0  0  0  0  0  0
  -21.4919  -23.8152    9.9981 C   0  0  0  0  0  0
  -22.5303  -22.6114    9.9760 C   0  0  0  0  0  0
  -20.4673  -24.9580    6.9202 C   0  0  0  0  0  0
  -18.3159  -25.6018    7.9873 C   0  0  0  0  0  0
  -21.5341  -24.2427    6.1494 C   0  0  0  0  0  0
  -19.0518  -24.5535    7.1739 C   0  0  0  0  0  0
  -16.9271  -24.7931    5.9817 C   0  0  0  0  0  0
  -18.1761  -25.5266    6.4871 C   0  0  0  0  0  0
  -21.4242  -24.0101    8.7247 C   0  0  0  0  0  0
  -21.0701  -23.5807    7.4139 C   0  0  0  0  0  0
  -19.4126  -25.0379    5.8570 N   0  0  0  0  0  0
  1  3  2  0  0  0
  1  8  1  0  0  0
  1 17  1  0  0  0
  2 13  2  0  0  0
  2 14  1  0  0  0
  3  6  1  0  0  0
  3  9  1  0  0  0
  4  7  1  0  0  0
  4  8  2  0  0  0
  5  7  1  0  0  0
  5 12  2  0  0  0
  5 14  1  0  0  0
  6 10  2  0  0  0
  7 11  2  0  0  0
  8 10  1  0  0  0
  8 12  1  0  0  0
  9 15  1  0  0  0
  9 16  1  0  0  0
 11 13  1  0  0  0
 14 19  1  0  0  0
 17 18  3  0  0  0
 19 23  1  0  0  0
 20 21  2  0  0  0
 20 23  1  0  0  0
 21 30  1  0  0  0
 21 31  1  0  0  0
 22 23  1  0  0  0
 22 30  2  0  0  0
 24 26  1  0  0  0
 24 27  1  0  0  0
 24 31  1  0  0  0
 24 32  1  0  0  0
 25 27  1  0  0  0
 25 29  1  0  0  0
 26 31  1  0  0  0
 27 29  1  0  0  0
 27 32  1  0  0  0
 28 29  1  0  0  0
 29 32  1  0  0  0
 30 31  1  0  0  0
M  END
> <s_m_entry_id>
974

> <s_m_entry_name>
10-myco-1_50_lig_gen_fit_add_gna.sdf.4

> <s_m_Source_Path>
C:\Users\maila\Downloads\mgr\myco-analysis

> <s_m_Source_File>
myco-10-var1-wzakresie.mae

> <i_m_Source_File_Index>
121

> <s_user_SMILES>
C1=NC(N)=C(C#N)[C]12=CC=3C(=C2)N(C=CC3)CC(C4)C=C5C=4C56C7(C6)C89C(N79)(C)C8

> <minimizedAffinity>
-8.70288

> <minimizedRMSD>
0.36102

> <CNNscore>
0.7464527488

> <CNNaffinity>
7.1195249557

> <CNN_VS>
5.314388752

> <CNNaffinity_variance>
0.0508566871

$$$$
C[C@@H](O)CCc1ccc(cc1)Cn(cc2)c(c23)CC(=C3)C(=C4CN)N=C4O
                    3D
 Schrodinger Suite 2021-1.
 31 34  0  0  1  0            999 V2000
  -25.4873  -20.3103   10.3466 C   0  0  0  0  0  0
  -23.7478  -20.3503   11.5982 C   0  0  0  0  0  0
  -23.2047  -18.2173   12.1066 C   0  0  0  0  0  0
  -24.2181  -19.1074   11.6360 C   0  0  0  0  0  0
  -25.3293  -19.0166   10.8362 C   0  0  0  0  0  0
  -22.3470  -20.4352   12.0759 C   0  0  0  0  0  0
  -24.4821  -21.1126   10.7785 N   0  0  0  0  0  0
  -22.1156  -18.9680   12.3440 C   0  0  0  0  0  0
  -19.4436  -18.7956   12.2730 N   0  0  0  0  0  0
  -19.0224  -17.6002   12.5299 C   0  0  0  0  0  0
  -20.3614  -17.2053   12.8652 C   0  0  0  0  0  0
  -20.7895  -18.3894   12.5130 C   0  0  0  0  0  0
  -17.8064  -16.9398   12.4955 O   0  0  0  0  0  0
  -17.7594  -15.9668   12.7670 H   0  0  0  0  0  0
  -21.0032  -15.9588   13.2907 C   0  0  0  0  0  0
  -21.5069  -15.2341   12.1430 N   0  0  0  0  0  0
  -21.8230  -14.2938   12.4733 H   0  0  0  0  0  0
  -20.7054  -15.0971   11.4925 H   0  0  0  0  0  0
  -24.3539  -22.5410   10.5410 C   0  0  0  0  0  0
  -20.9770  -23.7380    9.2373 C   0  0  0  0  0  0
  -23.2089  -22.8503    9.6123 C   0  0  0  0  0  0
  -22.2979  -22.9483    7.3651 C   0  0  0  0  0  0
  -23.3261  -22.5901    8.2409 C   0  0  0  0  0  0
  -21.1099  -23.5148    7.8572 C   0  0  0  0  0  0
  -22.0253  -23.4232   10.1065 C   0  0  0  0  0  0
  -19.9895  -23.8699    6.9121 C   0  0  0  0  0  0
  -18.6186  -23.5754    7.5428 C   0  0  0  0  0  0
  -18.6138  -21.7332    5.7793 C   0  0  0  0  0  0
  -17.7629  -22.5957    6.7148 C   0  0  1  0  0  0
  -17.0616  -21.7436    7.5827 O   0  0  0  0  0  0
  -16.3327  -22.2798    7.9892 H   0  0  0  0  0  0
  1  5  2  0  0  0
  1  7  1  0  0  0
  2  4  2  0  0  0
  2  6  1  0  0  0
  2  7  1  0  0  0
  3  4  1  0  0  0
  3  8  2  0  0  0
  4  5  1  0  0  0
  6  8  1  0  0  0
  7 19  1  0  0  0
  8 12  1  0  0  0
  9 10  2  0  0  0
  9 12  1  0  0  0
 10 11  1  0  0  0
 10 13  1  0  0  0
 11 12  2  0  0  0
 11 15  1  0  0  0
 13 14  1  0  0  0
 15 16  1  0  0  0
 16 17  1  0  0  0
 16 18  1  0  0  0
 19 21  1  0  0  0
 20 24  2  0  0  0
 20 25  1  0  0  0
 21 23  1  0  0  0
 21 25  2  0  0  0
 22 23  2  0  0  0
 22 24  1  0  0  0
 24 26  1  0  0  0
 26 27  1  0  0  0
 27 29  1  0  0  0
 28 29  1  0  0  0
 29 30  1  0  0  0
 30 31  1  0  0  0
M  END
> <s_m_entry_id>
975

> <s_m_entry_name>
10-myco-1_50_lig_gen_fit_add_gna.sdf.5

> <s_m_Source_Path>
C:\Users\maila\Downloads\mgr\myco-analysis

> <s_m_Source_File>
myco-10-var1-wzakresie.mae

> <i_m_Source_File_Index>
122

> <s_user_SMILES>
C[C@@H](O)CCc1ccc(cc1)Cn(cc2)c(c23)CC(=C3)C(=C4CN)N=C4O

> <minimizedAffinity>
-9.46623

> <minimizedRMSD>
0.86209

> <CNNscore>
0.5256512761

> <CNNaffinity>
6.2566900253

> <CNN_VS>
3.2888371944

> <CNNaffinity_variance>
0.1719270647

$$$$
COc1c(N)ncc(c12)[C]2(=C)C(=CC=C)C=C(N)Cc3ccc(cc3)C4C(C456)CCC5C6
                    3D
 Schrodinger Suite 2021-1.
 36 41  0  0  1  0            999 V2000
  -23.3555  -20.8843   11.2194 C   0  0  0  0  0  0
  -23.2606  -21.7004   10.1802 C   0  0  0  0  0  0
  -24.0076  -21.4120    8.9493 N   0  0  0  0  0  0
  -24.0359  -22.1911    8.2398 H   0  0  0  0  0  0
  -24.4363  -20.4859    8.7437 H   0  0  0  0  0  0
  -23.5095  -19.3942   11.4350 C   0  0  0  0  0  0
  -24.6623  -18.7979   11.3642 C   0  0  0  0  0  0
  -20.2086  -17.1300   12.2988 C   0  0  0  0  0  0
  -19.0395  -17.8767   12.6589 C   0  0  0  0  0  0
  -20.0635  -20.1358   12.0422 C   0  0  0  0  0  0
  -21.2858  -17.9143   11.9347 C   0  0  0  0  0  0
  -18.0172  -17.2525   13.4099 N   0  0  0  0  0  0
  -21.1478  -19.3708   11.9019 C   0  0  0  0  0  0
  -19.0288  -19.3244   12.5751 N   0  0  0  0  0  0
  -22.5109  -18.6806   13.7779 C   0  0  0  0  0  0
  -22.3276  -18.7345   12.2935 C   0  0  0  0  0  0
  -17.9834  -17.5083   14.4270 H   0  0  0  0  0  0
  -17.0863  -17.2146   12.9780 H   0  0  0  0  0  0
  -20.2468  -15.7558   12.4692 O   0  0  0  0  0  0
  -21.4610  -15.1596   12.8269 C   0  0  0  0  0  0
  -25.8190  -19.1524   10.4659 C   0  0  0  0  0  0
  -26.4481  -20.3274   10.4544 C   0  0  0  0  0  0
  -22.6449  -23.1504   10.3511 C   0  0  0  0  0  0
  -20.1410  -23.8382    7.4903 C   0  0  0  0  0  0
  -21.3377  -23.3747    8.0788 C   0  0  0  0  0  0
  -21.8681  -23.9583    9.2600 C   0  0  0  0  0  0
  -20.0952  -25.6585    9.0093 C   0  0  0  0  0  0
  -21.2814  -25.2078    9.6180 C   0  0  0  0  0  0
  -19.4473  -24.9358    8.0003 C   0  0  0  0  0  0
  -14.8721  -25.3599    6.8425 C   0  0  0  0  0  0
  -17.1570  -24.4555    6.7271 C   0  0  0  0  0  0
  -17.4061  -25.9587    6.8299 C   0  0  0  0  0  0
  -17.9139  -24.9409    7.9170 C   0  0  0  0  0  0
  -15.6639  -24.0752    7.0230 C   0  0  0  0  0  0
  -16.6428  -26.9707    7.7236 C   0  0  0  0  0  0
  -15.9355  -26.4332    6.5530 C   0  0  0  0  0  0
  1  2  2  0  0  0
  1  6  1  0  0  0
  2 23  1  0  0  0
  2  3  1  0  0  0
  3  4  1  0  0  0
  3  5  1  0  0  0
  6 16  1  0  0  0
  6  7  2  0  0  0
  7 21  1  0  0  0
  8  9  2  0  0  0
  8 11  1  0  0  0
  8 19  1  0  0  0
  9 12  1  0  0  0
  9 14  1  0  0  0
 10 13  1  0  0  0
 10 14  2  0  0  0
 11 13  2  0  0  0
 11 16  1  0  0  0
 12 17  1  0  0  0
 12 18  1  0  0  0
 13 16  1  0  0  0
 15 16  2  0  0  0
 19 20  1  0  0  0
 21 22  2  0  0  0
 23 26  1  0  0  0
 24 25  2  0  0  0
 24 29  1  0  0  0
 25 26  1  0  0  0
 26 28  2  0  0  0
 27 28  1  0  0  0
 27 29  2  0  0  0
 29 33  1  0  0  0
 30 34  1  0  0  0
 30 36  1  0  0  0
 31 32  1  0  0  0
 31 33  1  0  0  0
 31 34  1  0  0  0
 32 33  1  0  0  0
 32 35  1  0  0  0
 32 36  1  0  0  0
 35 36  1  0  0  0
M  END
> <s_m_entry_id>
976

> <s_m_entry_name>
10-myco-1_50_lig_gen_fit_add_gna.sdf.7

> <s_m_Source_Path>
C:\Users\maila\Downloads\mgr\myco-analysis

> <s_m_Source_File>
myco-10-var1-wzakresie.mae

> <i_m_Source_File_Index>
123

> <s_user_SMILES>
COc1c(N)ncc(c12)[C]2(=C)C(=CC=C)C=C(N)Cc3ccc(cc3)C4C(C456)CCC5C6

> <minimizedAffinity>
-8.19636

> <minimizedRMSD>
1.3711

> <CNNscore>
0.8183755875

> <CNNaffinity>
7.2721223831

> <CNN_VS>
5.9513273239

> <CNNaffinity_variance>
0.1560127586

$$$$
C[C@H](C1)CC1=Cc2ccc(cc2)CC3CC=C(C=34)C=C4c(cc5C)nnc5
                    3D
 Schrodinger Suite 2021-1.
 27 31  0  0  1  0            999 V2000
  -24.3656  -21.6790   10.7298 C   0  0  0  0  0  0
  -24.1324  -20.4677   11.1736 C   0  0  0  0  0  0
  -25.1762  -19.6106   10.9497 C   0  0  0  0  0  0
  -23.3905  -19.3700   11.7806 C   0  0  0  0  0  0
  -24.4280  -18.5366   11.5789 C   0  0  0  0  0  0
  -25.7797  -21.6249   10.1669 C   0  0  0  0  0  0
  -26.1701  -20.1583   10.3162 C   0  0  0  0  0  0
  -20.1373  -17.7849   12.6723 C   0  0  0  0  0  0
  -19.2932  -18.8581   12.4103 C   0  0  0  0  0  0
  -22.0098  -19.2070   12.1963 C   0  0  0  0  0  0
  -19.8287  -20.0452   12.0541 N   0  0  0  0  0  0
  -19.5525  -16.4481   12.9013 C   0  0  0  0  0  0
  -21.5164  -17.9543   12.5548 C   0  0  0  0  0  0
  -21.1436  -20.2216   11.9576 N   0  0  0  0  0  0
  -23.4774  -22.8806   10.8098 C   0  0  0  0  0  0
  -22.6593  -23.1379    9.5621 C   0  0  0  0  0  0
  -23.1013  -22.8057    8.2647 C   0  0  0  0  0  0
  -20.9983  -23.5725    7.3204 C   0  0  0  0  0  0
  -20.6058  -24.0120    8.5950 C   0  0  0  0  0  0
  -22.2802  -23.0309    7.1554 C   0  0  0  0  0  0
  -21.4340  -23.8042    9.7007 C   0  0  0  0  0  0
  -16.9486  -20.3646    5.6161 C   0  0  0  0  0  0
  -18.0637  -22.1288    7.0663 C   0  0  0  0  0  0
  -18.9156  -22.9778    6.1364 C   0  0  0  0  0  0
  -17.0254  -21.8401    6.0249 C   0  0  1  0  0  0
  -20.0849  -23.6205    6.1592 C   0  0  0  0  0  0
  -17.8445  -22.6893    5.0992 C   0  0  0  0  0  0
  1  2  2  0  0  0
  1 15  1  0  0  0
  1  6  1  0  0  0
  2  3  1  0  0  0
  2  4  1  0  0  0
  3  5  1  0  0  0
  3  7  2  0  0  0
  4 10  1  0  0  0
  4  5  2  0  0  0
  6  7  1  0  0  0
  8  9  2  0  0  0
  8 12  1  0  0  0
  8 13  1  0  0  0
  9 11  1  0  0  0
 10 13  2  0  0  0
 10 14  1  0  0  0
 11 14  2  0  0  0
 15 16  1  0  0  0
 16 17  2  0  0  0
 16 21  1  0  0  0
 17 20  1  0  0  0
 18 19  1  0  0  0
 18 20  2  0  0  0
 18 26  1  0  0  0
 19 21  2  0  0  0
 22 25  1  0  0  0
 23 24  1  0  0  0
 23 25  1  0  0  0
 24 26  2  0  0  0
 24 27  1  0  0  0
 25 27  1  0  0  0
M  END
> <s_m_entry_id>
977

> <s_m_entry_name>
10-myco-1_50_lig_gen_fit_add_gna.sdf.8

> <s_m_Source_Path>
C:\Users\maila\Downloads\mgr\myco-analysis

> <s_m_Source_File>
myco-10-var1-wzakresie.mae

> <i_m_Source_File_Index>
124

> <s_user_SMILES>
C[C@H](C1)CC1=Cc2ccc(cc2)CC3CC=C(C=34)C=C4c(cc5C)nnc5

> <minimizedAffinity>
-10.66203

> <minimizedRMSD>
0.52533

> <CNNscore>
0.9535074234

> <CNNaffinity>
7.1466431618

> <CNN_VS>
6.8143773079

> <CNNaffinity_variance>
0.0557365417

$$$$
N#CC1=C(N)N=C1C(C2)=Cc(c23)n(cc3)Nc(cc4)ccc4CCC
                    3D
 Schrodinger Suite 2021-1.
 28 31  0  0  1  0            999 V2000
  -24.0482  -19.7833   11.6932 C   0  0  0  0  0  0
  -23.3388  -20.9114   11.5493 C   0  0  0  0  0  0
  -21.8332  -19.3535   12.0761 C   0  0  0  0  0  0
  -25.1267  -21.1782   10.3679 C   0  0  0  0  0  0
  -23.1753  -18.6613   12.1167 C   0  0  0  0  0  0
  -25.1921  -19.8956   10.9211 C   0  0  0  0  0  0
  -21.9302  -20.6467   11.7415 C   0  0  0  0  0  0
  -23.9632  -21.7657   10.7302 N   0  0  0  0  0  0
  -20.2257  -17.2675   12.5817 C   0  0  0  0  0  0
  -18.9907  -17.6450   12.8325 C   0  0  0  0  0  0
  -17.8075  -16.9833   13.2544 N   0  0  0  0  0  0
  -19.3443  -18.9956   12.5369 N   0  0  0  0  0  0
  -20.5800  -18.6547   12.3586 C   0  0  0  0  0  0
  -16.9611  -17.5331   13.5061 H   0  0  0  0  0  0
  -17.8075  -15.9510   13.3816 H   0  0  0  0  0  0
  -21.4975  -15.0133   12.6080 N   0  0  0  0  0  0
  -20.9316  -16.0208   12.5959 C   0  0  0  0  0  0
  -23.5133  -23.0450   10.3740 N   0  0  0  0  0  0
  -23.5114  -23.7732   11.1234 H   0  0  0  0  0  0
  -22.6179  -23.2240    9.2705 C   0  0  0  0  0  0
  -23.0397  -22.9907    7.9523 C   0  0  0  0  0  0
  -20.3748  -23.6731    8.4613 C   0  0  0  0  0  0
  -20.7846  -23.4068    7.1461 C   0  0  0  0  0  0
  -22.1279  -23.0831    6.8954 C   0  0  0  0  0  0
  -21.2881  -23.5943    9.5137 C   0  0  0  0  0  0
  -19.7660  -23.3560    6.0397 C   0  0  0  0  0  0
  -18.4683  -22.7118    6.5447 C   0  0  0  0  0  0
  -18.1168  -21.4637    5.7415 C   0  0  0  0  0  0
  1  2  2  0  0  0
  1  5  1  0  0  0
  1  6  1  0  0  0
  2  7  1  0  0  0
  2  8  1  0  0  0
  3  5  1  0  0  0
  3 13  1  0  0  0
  3  7  2  0  0  0
  4  6  2  0  0  0
  4  8  1  0  0  0
  8 18  1  0  0  0
  9 10  2  0  0  0
  9 13  1  0  0  0
  9 17  1  0  0  0
 10 11  1  0  0  0
 10 12  1  0  0  0
 11 14  1  0  0  0
 11 15  1  0  0  0
 12 13  2  0  0  0
 16 17  3  0  0  0
 18 20  1  0  0  0
 18 19  1  0  0  0
 20 21  2  0  0  0
 20 25  1  0  0  0
 21 24  1  0  0  0
 22 23  1  0  0  0
 22 25  2  0  0  0
 23 26  1  0  0  0
 23 24  2  0  0  0
 26 27  1  0  0  0
 27 28  1  0  0  0
M  END
> <s_m_entry_id>
978

> <s_m_entry_name>
10-myco-1_50_lig_gen_fit_add_gna.sdf.9

> <s_m_Source_Path>
C:\Users\maila\Downloads\mgr\myco-analysis

> <s_m_Source_File>
myco-10-var1-wzakresie.mae

> <i_m_Source_File_Index>
125

> <s_user_SMILES>
N#CC1=C(N)N=C1C(C2)=Cc(c23)n(cc3)Nc(cc4)ccc4CCC

> <minimizedAffinity>
-9.74765

> <minimizedRMSD>
0.52773

> <CNNscore>
0.9396470785

> <CNNaffinity>
7.0158982277

> <CNN_VS>
6.5924682617

> <CNNaffinity_variance>
0.1490940303

$$$$
CCCC=C=C1C=C(C=C1)Cn(cc2)c(c23)CC(=C3)C4=NC=C4
                    3D
 Schrodinger Suite 2021-1.
 23 26  0  0  1  0            999 V2000
  -25.0593  -20.6254   10.6837 C   0  0  0  0  0  0
  -21.7141  -18.7259   12.3498 C   0  0  0  0  0  0
  -23.7966  -19.1402   11.6697 C   0  0  0  0  0  0
  -22.8723  -18.1076   12.0657 C   0  0  0  0  0  0
  -23.2007  -20.3275   11.7117 C   0  0  0  0  0  0
  -23.9337  -21.2663   11.0937 N   0  0  0  0  0  0
  -21.7988  -20.2396   12.1887 C   0  0  0  0  0  0
  -25.0043  -19.2713   11.0238 C   0  0  0  0  0  0
  -20.1692  -16.6611   13.1311 C   0  0  0  0  0  0
  -18.8874  -16.9617   13.0761 C   0  0  0  0  0  0
  -20.4797  -17.9981   12.6567 C   0  0  0  0  0  0
  -19.2146  -18.2685   12.5994 N   0  0  0  0  0  0
  -23.5870  -22.6631   10.8594 C   0  0  0  0  0  0
  -21.6525  -23.3538    7.7802 C   0  0  0  0  0  0
  -23.0144  -22.8387    9.4868 C   0  0  0  0  0  0
  -21.8000  -23.3048    9.2261 C   0  0  0  0  0  0
  -22.8934  -22.8359    7.2209 C   0  0  0  0  0  0
  -20.5065  -23.3702    7.1601 C   0  0  0  0  0  0
  -23.7094  -22.5584    8.2278 C   0  0  0  0  0  0
  -19.3469  -23.3775    6.5626 C   0  0  0  0  0  0
  -18.4985  -24.6141    6.5430 C   0  0  0  0  0  0
  -18.7330  -26.3773    8.3567 C   0  0  0  0  0  0
  -18.1015  -25.0426    7.9605 C   0  0  0  0  0  0
  1  6  1  0  0  0
  1  8  2  0  0  0
  2  4  2  0  0  0
  2 11  1  0  0  0
  2  7  1  0  0  0
  3  4  1  0  0  0
  3  5  2  0  0  0
  3  8  1  0  0  0
  5  6  1  0  0  0
  5  7  1  0  0  0
  6 13  1  0  0  0
  9 10  2  0  0  0
  9 11  1  0  0  0
 10 12  1  0  0  0
 11 12  2  0  0  0
 13 15  1  0  0  0
 14 16  1  0  0  0
 14 17  1  0  0  0
 14 18  2  0  0  0
 15 16  2  0  0  0
 15 19  1  0  0  0
 17 19  2  0  0  0
 18 20  2  0  0  0
 20 21  1  0  0  0
 21 23  1  0  0  0
 22 23  1  0  0  0
M  END
> <s_m_entry_id>
979

> <s_m_entry_name>
10-myco-1_51_lig_gen_fit_add_gna.sdf.8

> <s_m_Source_Path>
C:\Users\maila\Downloads\mgr\myco-analysis

> <s_m_Source_File>
myco-10-var1-wzakresie.mae

> <i_m_Source_File_Index>
126

> <s_user_SMILES>
CCCC=C=C1C=C(C=C1)Cn(cc2)c(c23)CC(=C3)C4=NC=C4

> <minimizedAffinity>
-8.58449

> <minimizedRMSD>
1.09607

> <CNNscore>
0.5897836685

> <CNNaffinity>
6.0090031624

> <CNN_VS>
3.5440118313

> <CNNaffinity_variance>
0.1313039809

$$$$
N1CC[C@@H]1CC2=C[C@@H](C=C2)Cn(cc3)c(c34)C=C(C4)C5=CC(=N5)N
                    3D
 Schrodinger Suite 2021-1.
 27 31  0  0  1  0            999 V2000
  -24.1093  -19.9322   11.4535 C   0  0  0  0  0  0
  -23.3301  -21.0204   11.3665 C   0  0  0  0  0  0
  -23.3530  -18.7684   11.9851 C   0  0  0  0  0  0
  -24.9684  -21.3687   10.0257 C   0  0  0  0  0  0
  -21.9639  -20.6670   11.6722 C   0  0  0  0  0  0
  -25.1595  -20.0975   10.5740 C   0  0  0  0  0  0
  -21.9641  -19.3717   12.0097 C   0  0  0  0  0  0
  -23.8262  -21.9237   10.5044 N   0  0  0  0  0  0
  -19.0859  -17.7188   12.7696 C   0  0  0  0  0  0
  -20.7449  -18.6157   12.2983 C   0  0  0  0  0  0
  -19.4307  -18.9640   12.7335 N   0  0  0  0  0  0
  -20.3996  -17.3420   12.2815 C   0  0  0  0  0  0
  -17.9110  -17.0188   13.1549 N   0  0  0  0  0  0
  -17.1130  -17.5327   13.5823 H   0  0  0  0  0  0
  -17.8647  -15.9845   13.0731 H   0  0  0  0  0  0
  -23.2359  -23.2173   10.1479 C   0  0  0  0  0  0
  -21.2752  -24.1772    8.9093 C   0  0  0  0  0  0
  -21.2925  -24.8109    7.7455 C   0  0  0  0  0  0
  -22.3096  -23.0991    8.9360 C   0  0  1  0  0  0
  -23.0102  -23.3407    7.6335 C   0  0  0  0  0  0
  -22.4012  -24.3014    6.9528 C   0  0  0  0  0  0
  -20.1745  -25.6829    7.2270 C   0  0  0  0  0  0
  -20.3347  -27.1981    7.4622 C   0  0  1  0  0  0
  -19.6000  -27.7714    8.6598 C   0  0  0  0  0  0
  -20.9753  -28.1447    9.1564 C   0  0  0  0  0  0
  -21.6468  -27.5497    7.9988 N   0  0  2  0  0  0
  -22.0504  -28.3218    7.4163 H   0  0  0  0  0  0
  1  2  2  0  0  0
  1  3  1  0  0  0
  1  6  1  0  0  0
  2  5  1  0  0  0
  2  8  1  0  0  0
  3  7  1  0  0  0
  4  6  2  0  0  0
  4  8  1  0  0  0
  5  7  2  0  0  0
  7 10  1  0  0  0
  8 16  1  0  0  0
  9 11  2  0  0  0
  9 12  1  0  0  0
  9 13  1  0  0  0
 10 11  1  0  0  0
 10 12  2  0  0  0
 13 14  1  0  0  0
 13 15  1  0  0  0
 16 19  1  0  0  0
 17 18  2  0  0  0
 17 19  1  0  0  0
 18 21  1  0  0  0
 18 22  1  0  0  0
 19 20  1  0  0  0
 20 21  2  0  0  0
 22 23  1  0  0  0
 23 24  1  0  0  0
 23 26  1  0  0  0
 24 25  1  0  0  0
 25 26  1  0  0  0
 26 27  1  0  0  0
M  END
> <s_m_entry_id>
980

> <s_m_entry_name>
10-myco-1_51_lig_gen_fit_add_gna.sdf.9

> <s_m_Source_Path>
C:\Users\maila\Downloads\mgr\myco-analysis

> <s_m_Source_File>
myco-10-var1-wzakresie.mae

> <i_m_Source_File_Index>
127

> <s_user_SMILES>
N1CC[C@@H]1CC2=C[C@@H](C=C2)Cn(cc3)c(c34)C=C(C4)C5=CC(=N5)N

> <minimizedAffinity>
-8.50469

> <minimizedRMSD>
0.68372

> <CNNscore>
0.9560786486

> <CNNaffinity>
6.5465865135

> <CNN_VS>
6.2590517998

> <CNNaffinity_variance>
0.0118619204

$$$$
[H]/N=c\1c(c12)c(N)nnc2-c(ccc3)cc3Cc4ccc(cc4)N5CCCNCC5
                    3D
 Schrodinger Suite 2021-1.
 33 37  0  0  1  0            999 V2000
  -24.0263  -18.5103   11.6124 C   0  0  0  0  0  0
  -22.9236  -19.3516   11.8142 C   0  0  0  0  0  0
  -23.0700  -20.7342   11.5654 C   0  0  0  0  0  0
  -25.3624  -20.3708   10.8492 C   0  0  0  0  0  0
  -25.2403  -19.0180   11.1529 C   0  0  0  0  0  0
  -24.2758  -21.2422   11.0250 C   0  0  0  0  0  0
  -19.0527  -17.6243   12.9018 C   0  0  0  0  0  0
  -19.2373  -18.9827   12.7037 N   0  0  0  0  0  0
  -21.6051  -18.7632   12.1671 C   0  0  0  0  0  0
  -20.1637  -16.9238   12.6847 C   0  0  0  0  0  0
  -17.8361  -17.0196   13.3112 N   0  0  0  0  0  0
  -21.3600  -17.4280   12.3422 C   0  0  0  0  0  0
  -21.2026  -16.0799   12.4971 C   0  0  0  0  0  0
  -21.6185  -14.8676   12.4799 N   0  0  0  0  0  0
  -20.4501  -19.5200   12.3518 N   0  0  0  0  0  0
  -17.7888  -15.9891   13.4590 H   0  0  0  0  0  0
  -16.9967  -17.5820   13.5160 H   0  0  0  0  0  0
  -22.5538  -14.6309   12.1398 H   0  0  0  0  0  0
  -24.4845  -22.7151   10.7387 C   0  0  0  0  0  0
  -21.5055  -24.8773    9.7875 C   0  0  0  0  0  0
  -21.2169  -24.4171    8.4939 C   0  0  0  0  0  0
  -23.3692  -23.3302    9.9391 C   0  0  0  0  0  0
  -22.0388  -23.4398    7.9113 C   0  0  0  0  0  0
  -23.1069  -22.8957    8.6316 C   0  0  0  0  0  0
  -22.5770  -24.3407   10.5023 C   0  0  0  0  0  0
  -20.0356  -26.3107    7.3416 C   0  0  0  0  0  0
  -17.6740  -24.6860    7.0281 C   0  0  0  0  0  0
  -17.8987  -24.9411    5.5238 C   0  0  0  0  0  0
  -19.2904  -25.2501    5.1604 N   0  0  1  0  0  0
  -18.8741  -24.0341    7.7306 C   0  0  0  0  0  0
  -19.8240  -26.4522    5.8168 C   0  0  0  0  0  0
  -20.0620  -24.9079    7.7929 N   0  0  0  0  0  0
  -19.9182  -24.4260    5.3077 H   0  0  0  0  0  0
  1  2  2  0  0  0
  1  5  1  0  0  0
  2  9  1  0  0  0
  2  3  1  0  0  0
  3  6  2  0  0  0
  4  5  2  0  0  0
  4  6  1  0  0  0
  6 19  1  0  0  0
  7  8  2  0  0  0
  7 10  1  0  0  0
  7 11  1  0  0  0
  8 15  1  0  0  0
  9 12  1  0  0  0
  9 15  2  0  0  0
 10 12  2  0  0  0
 10 13  1  0  0  0
 11 16  1  0  0  0
 11 17  1  0  0  0
 12 13  1  0  0  0
 13 14  2  0  0  0
 14 18  1  0  0  0
 19 22  1  0  0  0
 20 21  2  0  0  0
 20 25  1  0  0  0
 21 23  1  0  0  0
 21 32  1  0  0  0
 22 24  1  0  0  0
 22 25  2  0  0  0
 23 24  2  0  0  0
 26 31  1  0  0  0
 26 32  1  0  0  0
 27 28  1  0  0  0
 27 30  1  0  0  0
 28 29  1  0  0  0
 29 31  1  0  0  0
 29 33  1  0  0  0
 30 32  1  0  0  0
M  END
> <s_m_entry_id>
981

> <s_m_entry_name>
10-myco-1_51_lig_gen_fit_add_gna.sdf.10

> <s_m_Source_Path>
C:\Users\maila\Downloads\mgr\myco-analysis

> <s_m_Source_File>
myco-10-var1-wzakresie.mae

> <i_m_Source_File_Index>
128

> <s_user_SMILES>
[H]/N=c\1c(c12)c(N)nnc2-c(ccc3)cc3Cc4ccc(cc4)N5CCCNCC5

> <minimizedAffinity>
-10.74585

> <minimizedRMSD>
0.38539

> <CNNscore>
0.9534549117

> <CNNaffinity>
6.9601011276

> <CNN_VS>
6.6361427307

> <CNNaffinity_variance>
0.0293749515

$$$$
N1CCC\C1=C\c2ccc(cc2)CC3C=CC(C=34)=CC=C4c5cc(N)[nH]c5
                    3D
 Schrodinger Suite 2021-1.
 31 35  0  0  1  0            999 V2000
  -22.7911  -19.8382   11.9880 C   0  0  0  0  0  0
  -24.6408  -20.7948   11.1949 C   0  0  0  0  0  0
  -24.1864  -22.8572   10.5962 C   0  0  0  0  0  0
  -23.9346  -18.8956   11.9798 C   0  0  0  0  0  0
  -23.2664  -20.9925   11.4843 C   0  0  0  0  0  0
  -23.0197  -22.3841   11.0569 C   0  0  0  0  0  0
  -25.2342  -21.8481   10.6963 C   0  0  0  0  0  0
  -25.0272  -19.4528   11.4863 C   0  0  0  0  0  0
  -19.7332  -17.9873   12.6041 C   0  0  0  0  0  0
  -21.1024  -18.0397   12.5535 C   0  0  0  0  0  0
  -19.2000  -19.2107   12.5180 N   0  0  0  0  0  0
  -18.9661  -16.7915   12.6549 N   0  0  0  0  0  0
  -20.2306  -20.0648   12.3843 C   0  0  0  0  0  0
  -21.4364  -19.3792   12.3932 C   0  0  0  0  0  0
  -18.1842  -19.4464   12.4763 H   0  0  0  0  0  0
  -17.9235  -16.8360   12.6856 H   0  0  0  0  0  0
  -19.4505  -15.8669   12.6389 H   0  0  0  0  0  0
  -21.7557  -23.1826   10.9398 C   0  0  0  0  0  0
  -21.5638  -22.8262    8.4217 C   0  0  0  0  0  0
  -21.0939  -25.5522    8.0271 C   0  0  0  0  0  0
  -21.5271  -23.6917    9.5319 C   0  0  0  0  0  0
  -21.3980  -23.3245    7.1281 C   0  0  0  0  0  0
  -21.1510  -24.6869    6.9226 C   0  0  0  0  0  0
  -21.2719  -25.0562    9.3215 C   0  0  0  0  0  0
  -17.5493  -25.7907    4.6885 C   0  0  0  0  0  0
  -21.0292  -25.1991    5.5461 C   0  0  0  0  0  0
  -18.2517  -26.3685    3.4485 C   0  0  0  0  0  0
  -19.7524  -26.0924    3.6114 C   0  0  0  0  0  0
  -19.8687  -25.5843    4.9989 C   0  0  0  0  0  0
  -18.6022  -25.4339    5.6164 N   0  0  0  0  0  0
  -18.4221  -24.9605    6.5292 H   0  0  0  0  0  0
  1  4  2  0  0  0
  1  5  1  0  0  0
  1 14  1  0  0  0
  2  5  1  0  0  0
  2  7  1  0  0  0
  2  8  2  0  0  0
  3  6  1  0  0  0
  3  7  2  0  0  0
  4  8  1  0  0  0
  5  6  2  0  0  0
  6 18  1  0  0  0
  9 10  2  0  0  0
  9 11  1  0  0  0
  9 12  1  0  0  0
 10 14  1  0  0  0
 11 13  1  0  0  0
 11 15  1  0  0  0
 12 16  1  0  0  0
 12 17  1  0  0  0
 13 14  2  0  0  0
 18 21  1  0  0  0
 19 21  2  0  0  0
 19 22  1  0  0  0
 20 23  1  0  0  0
 20 24  2  0  0  0
 21 24  1  0  0  0
 22 23  2  0  0  0
 23 26  1  0  0  0
 25 27  1  0  0  0
 25 30  1  0  0  0
 26 29  2  0  0  0
 27 28  1  0  0  0
 28 29  1  0  0  0
 29 30  1  0  0  0
 30 31  1  0  0  0
M  END
> <s_m_entry_id>
982

> <s_m_entry_name>
10-myco-1_52_lig_gen_fit_add_gna.sdf.1

> <s_m_Source_Path>
C:\Users\maila\Downloads\mgr\myco-analysis

> <s_m_Source_File>
myco-10-var1-wzakresie.mae

> <i_m_Source_File_Index>
129

> <s_user_SMILES>
N1CCC\C1=C\c2ccc(cc2)CC3C=CC(C=34)=CC=C4c5cc(N)[nH]c5

> <minimizedAffinity>
-9.24199

> <minimizedRMSD>
0.53062

> <CNNscore>
0.7615475059

> <CNNaffinity>
6.6437597275

> <CNN_VS>
5.0595388412

> <CNNaffinity_variance>
0.212999016

$$$$
[H]/N=C(N)\C=C=C1N=C(C1=2)C=CC2CC3=CCC(=C3)CN4CCCC4
                    3D
 Schrodinger Suite 2021-1.
 27 30  0  0  1  0            999 V2000
  -24.7205  -20.5623   11.2510 C   0  0  0  0  0  0
  -23.1082  -22.0775   11.0076 C   0  0  0  0  0  0
  -22.2323  -18.7839   12.3813 C   0  0  0  0  0  0
  -21.3022  -17.9853   12.8311 C   0  0  0  0  0  0
  -23.3636  -20.8523   11.4140 C   0  0  0  0  0  0
  -25.4189  -21.6876   10.6987 C   0  0  0  0  0  0
  -23.2008  -19.5299   11.9284 C   0  0  0  0  0  0
  -24.4398  -22.6090   10.5532 C   0  0  0  0  0  0
  -24.6004  -19.3433   11.7106 N   0  0  0  0  0  0
  -19.0026  -17.1058   12.4036 N   0  0  0  0  0  0
  -19.8640  -18.2238   12.6055 C   0  0  0  0  0  0
  -19.3602  -19.4173   12.6176 N   0  0  0  0  0  0
  -17.9778  -17.2401   12.2528 H   0  0  0  0  0  0
  -19.3973  -16.1401   12.3860 H   0  0  0  0  0  0
  -19.9398  -20.2679   12.7853 H   0  0  0  0  0  0
  -21.7885  -22.7765   10.9337 C   0  0  0  0  0  0
  -21.9636  -22.7836    8.4159 C   0  0  0  0  0  0
  -20.6352  -24.4179    9.2518 C   0  0  0  0  0  0
  -21.5335  -23.3182    9.5543 C   0  0  0  0  0  0
  -20.5486  -24.5387    7.9352 C   0  0  0  0  0  0
  -21.3865  -23.5099    7.2486 C   0  0  0  0  0  0
  -19.6495  -25.5041    7.2226 C   0  0  0  0  0  0
  -16.3438  -23.8777    6.9586 C   0  0  0  0  0  0
  -17.5861  -25.6931    5.9455 C   0  0  0  0  0  0
  -16.2378  -24.9869    5.9237 C   0  0  0  0  0  0
  -17.7297  -24.0261    7.5637 C   0  0  0  0  0  0
  -18.5296  -24.7800    6.5940 N   0  0  0  0  0  0
  1  5  1  0  0  0
  1  6  1  0  0  0
  1  9  2  0  0  0
  2  5  2  0  0  0
  2 16  1  0  0  0
  2  8  1  0  0  0
  3  4  2  0  0  0
  3  7  2  0  0  0
  4 11  1  0  0  0
  5  7  1  0  0  0
  6  8  2  0  0  0
  7  9  1  0  0  0
 10 11  1  0  0  0
 10 13  1  0  0  0
 10 14  1  0  0  0
 11 12  2  0  0  0
 12 15  1  0  0  0
 16 19  1  0  0  0
 17 19  2  0  0  0
 17 21  1  0  0  0
 18 19  1  0  0  0
 18 20  2  0  0  0
 20 22  1  0  0  0
 20 21  1  0  0  0
 22 27  1  0  0  0
 23 25  1  0  0  0
 23 26  1  0  0  0
 24 25  1  0  0  0
 24 27  1  0  0  0
 26 27  1  0  0  0
M  END
> <s_m_entry_id>
983

> <s_m_entry_name>
10-myco-1_52_lig_gen_fit_add_gna.sdf.2

> <s_m_Source_Path>
C:\Users\maila\Downloads\mgr\myco-analysis

> <s_m_Source_File>
myco-10-var1-wzakresie.mae

> <i_m_Source_File_Index>
130

> <s_user_SMILES>
[H]/N=C(N)\C=C=C1N=C(C1=2)C=CC2CC3=CCC(=C3)CN4CCCC4

> <minimizedAffinity>
-8.90862

> <minimizedRMSD>
0.30446

> <CNNscore>
0.5036103725

> <CNNaffinity>
6.2644529343

> <CNN_VS>
3.1548435688

> <CNNaffinity_variance>
0.0611074045

$$$$
CCCCCc1ccc(cc1)CC2=CC=C(C2=3)CC3[C@@H](C=N4)C=C4N
                    3D
 Schrodinger Suite 2021-1.
 27 30  0  0  1  0            999 V2000
  -23.3172  -20.9437   11.5573 C   0  0  0  0  0  0
  -22.8669  -19.7515   12.0685 C   0  0  0  0  0  0
  -24.5440  -22.5750   10.7099 C   0  0  0  0  0  0
  -24.5867  -20.4106   11.1504 C   0  0  0  0  0  0
  -25.3747  -21.3316   10.6598 C   0  0  0  0  0  0
  -23.3233  -22.3513   11.2554 C   0  0  0  0  0  0
  -24.1048  -19.1512   11.5920 C   0  0  0  0  0  0
  -20.4307  -19.9438   12.5663 C   0  0  0  0  0  0
  -20.0955  -17.8028   12.5327 C   0  0  0  0  0  0
  -21.3842  -17.8812   12.8057 C   0  0  0  0  0  0
  -19.4955  -19.0757   12.3657 N   0  0  0  0  0  0
  -21.7319  -19.3193   12.9393 C   0  0  1  0  0  0
  -19.3701  -16.5829   12.4320 N   0  0  0  0  0  0
  -18.3542  -16.6055   12.1942 H   0  0  0  0  0  0
  -19.8430  -15.6672   12.6020 H   0  0  0  0  0  0
  -22.2220  -23.3451   11.4277 C   0  0  0  0  0  0
  -20.9114  -25.8245    8.8533 C   0  0  0  0  0  0
  -21.4414  -25.2977   10.0340 C   0  0  0  0  0  0
  -21.5918  -23.1189    8.9899 C   0  0  0  0  0  0
  -21.7798  -23.9382   10.1146 C   0  0  0  0  0  0
  -20.6798  -24.9929    7.7447 C   0  0  0  0  0  0
  -21.0405  -23.6388    7.8176 C   0  0  0  0  0  0
  -20.0294  -25.5386    6.4963 C   0  0  0  0  0  0
  -18.6313  -26.1200    6.7625 C   0  0  0  0  0  0
  -17.6320  -25.0566    7.2502 C   0  0  0  0  0  0
  -16.9968  -26.5886    9.1898 C   0  0  0  0  0  0
  -16.4912  -25.6663    8.0791 C   0  0  0  0  0  0
  1  2  2  0  0  0
  1  4  1  0  0  0
  1  6  1  0  0  0
  2  7  1  0  0  0
  2 12  1  0  0  0
  3  5  1  0  0  0
  3  6  2  0  0  0
  4  5  2  0  0  0
  4  7  1  0  0  0
  6 16  1  0  0  0
  8 11  2  0  0  0
  8 12  1  0  0  0
  9 10  2  0  0  0
  9 11  1  0  0  0
  9 13  1  0  0  0
 10 12  1  0  0  0
 13 14  1  0  0  0
 13 15  1  0  0  0
 16 20  1  0  0  0
 17 18  2  0  0  0
 17 21  1  0  0  0
 18 20  1  0  0  0
 19 20  2  0  0  0
 19 22  1  0  0  0
 21 23  1  0  0  0
 21 22  2  0  0  0
 23 24  1  0  0  0
 24 25  1  0  0  0
 25 27  1  0  0  0
 26 27  1  0  0  0
M  END
> <s_m_entry_id>
984

> <s_m_entry_name>
10-myco-1_52_lig_gen_fit_add_gna.sdf.4

> <s_m_Source_Path>
C:\Users\maila\Downloads\mgr\myco-analysis

> <s_m_Source_File>
myco-10-var1-wzakresie.mae

> <i_m_Source_File_Index>
131

> <s_user_SMILES>
CCCCCc1ccc(cc1)CC2=CC=C(C2=3)CC3[C@@H](C=N4)C=C4N

> <minimizedAffinity>
-8.1232

> <minimizedRMSD>
0.34989

> <CNNscore>
0.6659752131

> <CNNaffinity>
6.570063591

> <CNN_VS>
4.3754997253

> <CNNaffinity_variance>
0.3067505956

$$$$
C1NCCN1c(cc2)ccc2Cn3cnc(c34)C=C4C5=NN=C(C5)N
                    3D
 Schrodinger Suite 2021-1.
 28 32  0  0  1  0            999 V2000
  -22.8462  -20.1476   11.9273 C   0  0  0  0  0  0
  -24.8508  -22.6045   10.8002 C   0  0  0  0  0  0
  -24.0916  -19.4541   11.6682 C   0  0  0  0  0  0
  -24.5843  -20.6232   11.2854 C   0  0  0  0  0  0
  -23.4569  -21.2529   11.5227 C   0  0  0  0  0  0
  -23.5337  -22.5384   11.2343 N   0  0  0  0  0  0
  -25.5569  -21.4026   10.8154 N   0  0  0  0  0  0
  -19.5872  -18.6546   12.6520 C   0  0  0  0  0  0
  -19.3194  -19.9120   12.5643 N   0  0  0  0  0  0
  -18.5890  -17.6566   12.8224 N   0  0  0  0  0  0
  -21.0441  -18.3811   12.5857 C   0  0  0  0  0  0
  -20.5134  -20.6114   12.3736 N   0  0  0  0  0  0
  -21.5006  -19.7781   12.3629 C   0  0  0  0  0  0
  -17.5789  -17.9146   12.8831 H   0  0  0  0  0  0
  -18.8768  -16.6553   12.8743 H   0  0  0  0  0  0
  -22.4949  -23.5637   11.2445 C   0  0  0  0  0  0
  -21.1928  -25.5346    8.2554 C   0  0  0  0  0  0
  -21.5611  -23.2481    7.5530 C   0  0  0  0  0  0
  -21.9870  -22.9222    8.8420 C   0  0  0  0  0  0
  -22.0523  -23.9063    9.8426 C   0  0  0  0  0  0
  -21.1635  -24.5601    7.2403 C   0  0  0  0  0  0
  -21.6312  -25.2097    9.5426 C   0  0  0  0  0  0
  -19.7358  -25.8956    5.5884 C   0  0  0  0  0  0
  -21.2502  -24.2845    4.6935 C   0  0  0  0  0  0
  -20.7335  -24.8982    5.9037 N   0  0  0  0  0  0
  -20.6699  -24.9967    3.5530 N   0  0  1  0  0  0
  -19.5630  -25.8001    4.0825 C   0  0  0  0  0  0
  -21.3950  -25.6558    3.1820 H   0  0  0  0  0  0
  1  3  2  0  0  0
  1  5  1  0  0  0
  1 13  1  0  0  0
  2  6  1  0  0  0
  2  7  2  0  0  0
  3  4  1  0  0  0
  4  5  2  0  0  0
  4  7  1  0  0  0
  5  6  1  0  0  0
  6 16  1  0  0  0
  8  9  2  0  0  0
  8 10  1  0  0  0
  8 11  1  0  0  0
  9 12  1  0  0  0
 10 14  1  0  0  0
 10 15  1  0  0  0
 11 13  1  0  0  0
 12 13  2  0  0  0
 16 20  1  0  0  0
 17 21  2  0  0  0
 17 22  1  0  0  0
 18 19  2  0  0  0
 18 21  1  0  0  0
 19 20  1  0  0  0
 20 22  2  0  0  0
 21 25  1  0  0  0
 23 25  1  0  0  0
 23 27  1  0  0  0
 24 25  1  0  0  0
 24 26  1  0  0  0
 26 27  1  0  0  0
 26 28  1  0  0  0
M  END
> <s_m_entry_id>
985

> <s_m_entry_name>
10-myco-1_52_lig_gen_fit_add_gna.sdf.5

> <s_m_Source_Path>
C:\Users\maila\Downloads\mgr\myco-analysis

> <s_m_Source_File>
myco-10-var1-wzakresie.mae

> <i_m_Source_File_Index>
132

> <s_user_SMILES>
C1NCCN1c(cc2)ccc2Cn3cnc(c34)C=C4C5=NN=C(C5)N

> <minimizedAffinity>
-9.41305

> <minimizedRMSD>
0.55874

> <CNNscore>
0.9776955843

> <CNNaffinity>
6.7078132629

> <CNN_VS>
6.5581994057

> <CNNaffinity_variance>
0.1520327479

$$$$
CC/C=C\C1=CCC(=C1)CC2C=C[C@H](C=23)N=C3[C@@H](C=N4)C=C4N
                    3D
 Schrodinger Suite 2021-1.
 25 28  0  0  1  0            999 V2000
  -22.9982  -20.8773   11.0360 C   0  0  0  0  0  0
  -25.0985  -21.5292   10.9960 C   0  0  0  0  0  0
  -24.3311  -22.6002   11.1984 C   0  0  0  0  0  0
  -22.9343  -22.1790   11.2414 C   0  0  0  0  0  0
  -24.2412  -20.3204   10.7525 C   0  0  1  0  0  0
  -22.9110  -19.6963   11.9906 C   0  0  0  0  0  0
  -24.1913  -19.3704   11.8013 N   0  0  0  0  0  0
  -20.5096  -19.7468   12.5940 C   0  0  0  0  0  0
  -20.3608  -17.5853   12.6187 C   0  0  0  0  0  0
  -21.6319  -17.7841   12.9139 C   0  0  0  0  0  0
  -19.7522  -16.3032   12.5116 N   0  0  0  0  0  0
  -19.6554  -18.7959   12.4094 N   0  0  0  0  0  0
  -21.8675  -19.2513   12.9624 C   0  0  1  0  0  0
  -20.3021  -15.4343   12.6949 H   0  0  0  0  0  0
  -18.7482  -16.2321   12.2363 H   0  0  0  0  0  0
  -21.7674  -23.0538   10.8812 C   0  0  0  0  0  0
  -21.5648  -23.1762    9.3917 C   0  0  0  0  0  0
  -20.6406  -23.9498    8.8369 C   0  0  0  0  0  0
  -20.7289  -23.8183    7.3866 C   0  0  0  0  0  0
  -22.3518  -22.4669    8.3321 C   0  0  0  0  0  0
  -21.7226  -22.9955    7.0908 C   0  0  0  0  0  0
  -19.9845  -24.5766    6.3614 C   0  0  0  0  0  0
  -18.6759  -24.8665    6.3845 C   0  0  0  0  0  0
  -17.3099  -25.6254    8.3147 C   0  0  0  0  0  0
  -17.6931  -24.4378    7.4380 C   0  0  0  0  0  0
  1  4  2  0  0  0
  1  5  1  0  0  0
  1  6  1  0  0  0
  2  3  2  0  0  0
  2  5  1  0  0  0
  3  4  1  0  0  0
  4 16  1  0  0  0
  5  7  1  0  0  0
  6 13  1  0  0  0
  6  7  2  0  0  0
  8 12  2  0  0  0
  8 13  1  0  0  0
  9 10  2  0  0  0
  9 11  1  0  0  0
  9 12  1  0  0  0
 10 13  1  0  0  0
 11 14  1  0  0  0
 11 15  1  0  0  0
 16 17  1  0  0  0
 17 18  2  0  0  0
 17 20  1  0  0  0
 18 19  1  0  0  0
 19 22  1  0  0  0
 19 21  2  0  0  0
 20 21  1  0  0  0
 22 23  2  0  0  0
 23 25  1  0  0  0
 24 25  1  0  0  0
M  END
> <s_m_entry_id>
986

> <s_m_entry_name>
10-myco-1_52_lig_gen_fit_add_gna.sdf.8

> <s_m_Source_Path>
C:\Users\maila\Downloads\mgr\myco-analysis

> <s_m_Source_File>
myco-10-var1-wzakresie.mae

> <i_m_Source_File_Index>
133

> <s_user_SMILES>
CC/C=C\C1=CCC(=C1)CC2C=C[C@H](C=23)N=C3[C@@H](C=N4)C=C4N

> <minimizedAffinity>
-8.86621

> <minimizedRMSD>
0.39269

> <CNNscore>
0.4480510056

> <CNNaffinity>
6.2230005264

> <CNN_VS>
2.7882215977

> <CNNaffinity_variance>
0.1322309673

$$$$
C1CCCN1Cc(cc2)ccc2CN3C=C[C@H](C34)C=CC=4C5=CC(=N5)N
                    3D
 Schrodinger Suite 2021-1.
 28 32  0  0  1  0            999 V2000
  -23.2806  -21.0768   10.9527 C   0  0  0  0  0  0
  -22.9948  -20.0654   11.7735 C   0  0  0  0  0  0
  -24.6023  -20.8199   10.3097 C   0  0  1  0  0  0
  -24.0946  -19.1229   11.7633 C   0  0  0  0  0  0
  -24.5730  -22.9269   11.2592 C   0  0  0  0  0  0
  -25.3782  -22.0276   10.7204 C   0  0  0  0  0  0
  -25.0380  -19.5557   10.9543 C   0  0  0  0  0  0
  -23.2513  -22.4272   11.4025 N   0  0  0  0  0  0
  -19.8145  -19.2957   12.7019 C   0  0  0  0  0  0
  -21.6661  -19.7301   12.2984 C   0  0  0  0  0  0
  -20.4174  -20.4101   12.4421 N   0  0  0  0  0  0
  -21.0850  -18.6000   12.6554 C   0  0  0  0  0  0
  -18.4655  -18.9130   12.9460 N   0  0  0  0  0  0
  -18.2304  -17.9149   13.1404 H   0  0  0  0  0  0
  -17.7106  -19.6316   12.9396 H   0  0  0  0  0  0
  -22.0793  -23.2725   11.5727 C   0  0  0  0  0  0
  -20.6724  -25.1515    7.9470 C   0  0  0  0  0  0
  -21.6727  -23.9378   10.2827 C   0  0  0  0  0  0
  -21.0884  -23.8122    7.9250 C   0  0  0  0  0  0
  -21.2689  -25.2823   10.2967 C   0  0  0  0  0  0
  -21.5757  -23.2066    9.0861 C   0  0  0  0  0  0
  -20.7756  -25.8851    9.1384 C   0  0  0  0  0  0
  -20.0502  -25.7725    6.7227 C   0  0  0  0  0  0
  -18.1235  -25.7302    5.2342 C   0  0  0  0  0  0
  -16.6398  -25.4108    5.3848 C   0  0  0  0  0  0
  -16.4972  -24.7624    6.7514 C   0  0  0  0  0  0
  -17.8497  -24.9422    7.4122 C   0  0  0  0  0  0
  -18.8280  -25.0462    6.3254 N   0  0  0  0  0  0
  1  2  2  0  0  0
  1  3  1  0  0  0
  1  8  1  0  0  0
  2  4  1  0  0  0
  2 10  1  0  0  0
  3  6  1  0  0  0
  3  7  1  0  0  0
  4  7  2  0  0  0
  5  6  2  0  0  0
  5  8  1  0  0  0
  8 16  1  0  0  0
  9 11  2  0  0  0
  9 12  1  0  0  0
  9 13  1  0  0  0
 10 11  1  0  0  0
 10 12  2  0  0  0
 13 14  1  0  0  0
 13 15  1  0  0  0
 16 18  1  0  0  0
 17 19  2  0  0  0
 17 23  1  0  0  0
 17 22  1  0  0  0
 18 20  1  0  0  0
 18 21  2  0  0  0
 19 21  1  0  0  0
 20 22  2  0  0  0
 23 28  1  0  0  0
 24 25  1  0  0  0
 24 28  1  0  0  0
 25 26  1  0  0  0
 26 27  1  0  0  0
 27 28  1  0  0  0
M  END
> <s_m_entry_id>
987

> <s_m_entry_name>
10-myco-1_52_lig_gen_fit_add_gna.sdf.10

> <s_m_Source_Path>
C:\Users\maila\Downloads\mgr\myco-analysis

> <s_m_Source_File>
myco-10-var1-wzakresie.mae

> <i_m_Source_File_Index>
134

> <s_user_SMILES>
C1CCCN1Cc(cc2)ccc2CN3C=C[C@H](C34)C=CC=4C5=CC(=N5)N

> <minimizedAffinity>
-8.26363

> <minimizedRMSD>
0.37028

> <CNNscore>
0.8659358621

> <CNNaffinity>
6.4216928482

> <CNN_VS>
5.5607743263

> <CNNaffinity_variance>
0.1857546568

$$$$
c1ccccc1CC[C@@H](CC)NC2C=CC(C=23)=C[C@@H]3C4=C(N)C(=O)N=C4
                    3D
 Schrodinger Suite 2021-1.
 29 32  0  0  1  0            999 V2000
  -24.1008  -19.1868   11.4378 C   0  0  0  0  0  0
  -23.1636  -20.2066   11.8218 C   0  0  0  0  0  0
  -23.4404  -18.1870   12.0839 C   0  0  0  0  0  0
  -25.1236  -19.7505   10.5954 C   0  0  0  0  0  0
  -22.5030  -19.1712   12.5670 C   0  0  2  0  0  0
  -23.5016  -21.3401   11.2644 C   0  0  0  0  0  0
  -24.7559  -21.0484   10.4779 C   0  0  0  0  0  0
  -20.4801  -17.7060   12.2930 C   0  0  0  0  0  0
  -20.0298  -19.8910   12.1873 C   0  0  0  0  0  0
  -19.0813  -17.9852   12.4943 C   0  0  0  0  0  0
  -18.8586  -19.3794   12.4069 N   0  0  0  0  0  0
  -21.1135  -16.4550   12.5248 N   0  0  0  0  0  0
  -21.0867  -18.8817   12.1639 C   0  0  0  0  0  0
  -18.1853  -17.1393   12.7480 O   0  0  0  0  0  0
  -20.7775  -15.8516   13.2937 H   0  0  0  0  0  0
  -21.7450  -16.0417   11.8066 H   0  0  0  0  0  0
  -22.7479  -22.5546   11.2857 N   0  0  0  0  0  0
  -21.9559  -22.6415   11.9583 H   0  0  0  0  0  0
  -23.0163  -23.5962   10.2937 C   0  0  2  0  0  0
  -22.7420  -25.0073   10.8618 C   0  0  0  0  0  0
  -21.4413  -25.6367   10.3760 C   0  0  0  0  0  0
  -22.2449  -23.2739    8.9851 C   0  0  0  0  0  0
  -23.1024  -23.5476    7.7498 C   0  0  0  0  0  0
  -22.6703  -22.3522    5.5688 C   0  0  0  0  0  0
  -23.2450  -22.3459    6.8505 C   0  0  0  0  0  0
  -24.2890  -20.2059    6.3454 C   0  0  0  0  0  0
  -22.9176  -21.3020    4.6811 C   0  0  0  0  0  0
  -24.0732  -21.2703    7.2248 C   0  0  0  0  0  0
  -23.7149  -20.2234    5.0729 C   0  0  0  0  0  0
  1  2  1  0  0  0
  1  3  2  0  0  0
  1  4  1  0  0  0
  2  5  1  0  0  0
  2  6  2  0  0  0
  3  5  1  0  0  0
  4  7  2  0  0  0
  5 13  1  0  0  0
  6 17  1  0  0  0
  6  7  1  0  0  0
  8 10  1  0  0  0
  8 12  1  0  0  0
  8 13  2  0  0  0
  9 11  2  0  0  0
  9 13  1  0  0  0
 10 11  1  0  0  0
 10 14  2  0  0  0
 12 15  1  0  0  0
 12 16  1  0  0  0
 17 19  1  0  0  0
 17 18  1  0  0  0
 19 22  1  0  0  0
 19 20  1  0  0  0
 20 21  1  0  0  0
 22 23  1  0  0  0
 23 25  1  0  0  0
 24 25  2  0  0  0
 24 27  1  0  0  0
 25 28  1  0  0  0
 26 28  2  0  0  0
 26 29  1  0  0  0
 27 29  2  0  0  0
M  END
> <s_m_entry_id>
988

> <s_m_entry_name>
10-myco-1_53_lig_gen_fit_add_gna.sdf.1

> <s_m_Source_Path>
C:\Users\maila\Downloads\mgr\myco-analysis

> <s_m_Source_File>
myco-10-var1-wzakresie.mae

> <i_m_Source_File_Index>
135

> <s_user_SMILES>
c1ccccc1CC[C@@H](CC)NC2C=CC(C=23)=C[C@@H]3C4=C(N)C(=O)N=C4

> <minimizedAffinity>
-8.99293

> <minimizedRMSD>
0.66917

> <CNNscore>
0.6057268381

> <CNNaffinity>
6.6817107201

> <CNN_VS>
4.0472912788

> <CNNaffinity_variance>
0.5114688277

$$$$
C1C=CC=C1CN(CC2)[C@H]([C@H]23)[C@@H]3C4=CC=C(C4=5)C=C(C5)C(=C6C)N=C[C@@H]6N
                    3D
 Schrodinger Suite 2021-1.
 29 34  0  0  1  0            999 V2000
  -24.0514  -19.4415   11.6035 C   0  0  0  0  0  0
  -25.2114  -20.8690   10.3355 C   0  0  0  0  0  0
  -21.9578  -19.1160   12.2762 C   0  0  0  0  0  0
  -24.1763  -21.5936   10.7859 C   0  0  0  0  0  0
  -23.0779  -18.4371   11.9670 C   0  0  0  0  0  0
  -23.4229  -20.6906   11.6473 C   0  0  0  0  0  0
  -25.1137  -19.4757   10.8233 C   0  0  0  0  0  0
  -22.1766  -20.5591   12.0576 C   0  0  0  0  0  0
  -18.4178  -18.7351   12.2785 C   0  0  0  0  0  0
  -20.1810  -17.3148   12.4694 C   0  0  0  0  0  0
  -19.4787  -19.4595   12.3254 N   0  0  0  0  0  0
  -21.0200  -16.0958   12.3824 C   0  0  0  0  0  0
  -18.0613  -16.6925   13.5158 N   0  0  0  0  0  0
  -18.6995  -17.2867   12.3495 C   0  0  1  0  0  0
  -20.5889  -18.5829   12.4150 C   0  0  0  0  0  0
  -18.2416  -17.2816   14.3591 H   0  0  0  0  0  0
  -17.0282  -16.7037   13.3619 H   0  0  0  0  0  0
  -22.3256  -25.0457   10.3481 C   0  0  0  0  0  0
  -22.3876  -22.7750    9.4799 C   0  0  2  0  0  0
  -22.5340  -23.6048   10.7430 C   0  0  1  0  0  0
  -23.7499  -22.8943   10.1644 C   0  0  1  0  0  0
  -22.0905  -23.6687    8.3490 N   0  0  1  0  0  0
  -22.1019  -25.0585    8.8417 C   0  0  0  0  0  0
  -23.0120  -23.4899    7.2104 C   0  0  0  0  0  0
  -23.0128  -22.0947    6.6611 C   0  0  0  0  0  0
  -23.8774  -20.1741    5.8490 C   0  0  0  0  0  0
  -24.0427  -21.2686    6.7814 C   0  0  0  0  0  0
  -22.7445  -20.3370    5.1874 C   0  0  0  0  0  0
  -22.0726  -21.6021    5.6093 C   0  0  0  0  0  0
  1  5  1  0  0  0
  1  6  1  0  0  0
  1  7  2  0  0  0
  2  4  2  0  0  0
  2  7  1  0  0  0
  3  5  2  0  0  0
  3 15  1  0  0  0
  3  8  1  0  0  0
  4  6  1  0  0  0
  4 21  1  0  0  0
  6  8  2  0  0  0
  9 11  2  0  0  0
  9 14  1  0  0  0
 10 12  1  0  0  0
 10 14  1  0  0  0
 10 15  2  0  0  0
 11 15  1  0  0  0
 13 14  1  0  0  0
 13 16  1  0  0  0
 13 17  1  0  0  0
 18 20  1  0  0  0
 18 23  1  0  0  0
 19 20  1  0  0  0
 19 21  1  0  0  0
 19 22  1  0  0  0
 20 21  1  0  0  0
 22 24  1  0  0  0
 22 23  1  0  0  0
 24 25  1  0  0  0
 25 27  2  0  0  0
 25 29  1  0  0  0
 26 27  1  0  0  0
 26 28  2  0  0  0
 28 29  1  0  0  0
M  END
> <s_m_entry_id>
989

> <s_m_entry_name>
10-myco-1_53_lig_gen_fit_add_gna.sdf.2

> <s_m_Source_Path>
C:\Users\maila\Downloads\mgr\myco-analysis

> <s_m_Source_File>
myco-10-var1-wzakresie.mae

> <i_m_Source_File_Index>
136

> <s_user_SMILES>
C1C=CC=C1CN(CC2)[C@H]([C@H]23)[C@@H]3C4=CC=C(C4=5)C=C(C5)C(=C6C)N=C[C@@H]6N

> <minimizedAffinity>
-10.49828

> <minimizedRMSD>
0.41091

> <CNNscore>
0.7974126935

> <CNNaffinity>
7.5260095596

> <CNN_VS>
6.0013356209

> <CNNaffinity_variance>
0.1370830238

$$$$
N#Cc1c(N)cnc(c1)-c(c2)ccc(c2=3)=CC3N[C@@H]4CC[C@H]([C@H]45)O[C@@H]5c6ccccc6
                    3D
 Schrodinger Suite 2021-1.
 34 39  0  0  1  0            999 V2000
  -22.9921  -21.2222   11.7187 C   0  0  0  0  0  0
  -24.4208  -19.2379   11.3264 C   0  0  0  0  0  0
  -24.9347  -21.3117   10.3157 C   0  0  0  0  0  0
  -23.2165  -19.8276   11.8643 C   0  0  0  0  0  0
  -25.1181  -22.5183    9.5219 C   0  0  0  0  0  0
  -24.0276  -23.0605   10.0894 C   0  0  0  0  0  0
  -25.3169  -20.0019   10.5340 C   0  0  0  0  0  0
  -23.8632  -21.8737   10.8942 C   0  0  0  0  0  0
  -19.6679  -18.8541   12.2237 C   0  0  0  0  0  0
  -22.0461  -19.0083   12.2513 C   0  0  0  0  0  0
  -20.9763  -16.8865   12.6884 C   0  0  0  0  0  0
  -20.8117  -19.5576   12.0880 N   0  0  0  0  0  0
  -22.1417  -17.6502   12.5751 C   0  0  0  0  0  0
  -19.7152  -17.4995   12.5209 C   0  0  0  0  0  0
  -18.4832  -16.7959   12.6675 N   0  0  0  0  0  0
  -18.4100  -15.9892   13.3074 H   0  0  0  0  0  0
  -17.5900  -17.2236   12.3385 H   0  0  0  0  0  0
  -21.3026  -14.3487   13.0869 N   0  0  0  0  0  0
  -21.1355  -15.4759   12.8939 C   0  0  0  0  0  0
  -23.1974  -24.2048    9.8898 N   0  0  0  0  0  0
  -22.9326  -24.7426   10.7459 H   0  0  0  0  0  0
  -20.7686  -23.1984    7.3854 C   0  0  2  0  0  0
  -22.4791  -24.4322    8.6330 C   0  0  2  0  0  0
  -22.5283  -23.0727    6.4135 C   0  0  2  0  0  0
  -21.1123  -25.0757    8.8811 C   0  0  0  0  0  0
  -22.1796  -23.1070    7.9014 C   0  0  2  0  0  0
  -21.1724  -23.1515    6.0366 O   0  0  0  0  0  0
  -20.2052  -24.5620    7.7762 C   0  0  0  0  0  0
  -23.1734  -21.8062    5.8860 C   0  0  0  0  0  0
  -24.6361  -19.8767    6.1652 C   0  0  0  0  0  0
  -23.1458  -21.5545    4.5030 C   0  0  0  0  0  0
  -23.9451  -20.9636    6.7088 C   0  0  0  0  0  0
  -24.5681  -19.6171    4.7960 C   0  0  0  0  0  0
  -23.8269  -20.4581    3.9653 C   0  0  0  0  0  0
  1  4  2  0  0  0
  1  8  1  0  0  0
  2  4  1  0  0  0
  2  7  2  0  0  0
  3  5  2  0  0  0
  3  7  1  0  0  0
  3  8  1  0  0  0
  4 10  1  0  0  0
  5  6  1  0  0  0
  6 20  1  0  0  0
  6  8  2  0  0  0
  9 12  2  0  0  0
  9 14  1  0  0  0
 10 12  1  0  0  0
 10 13  2  0  0  0
 11 13  1  0  0  0
 11 14  2  0  0  0
 11 19  1  0  0  0
 14 15  1  0  0  0
 15 16  1  0  0  0
 15 17  1  0  0  0
 18 19  3  0  0  0
 20 23  1  0  0  0
 20 21  1  0  0  0
 22 26  1  0  0  0
 22 27  1  0  0  0
 22 28  1  0  0  0
 23 25  1  0  0  0
 23 26  1  0  0  0
 24 29  1  0  0  0
 24 26  1  0  0  0
 24 27  1  0  0  0
 25 28  1  0  0  0
 29 31  2  0  0  0
 29 32  1  0  0  0
 30 32  2  0  0  0
 30 33  1  0  0  0
 31 34  1  0  0  0
 33 34  2  0  0  0
M  END
> <s_m_entry_id>
990

> <s_m_entry_name>
10-myco-1_53_lig_gen_fit_add_gna.sdf.5

> <s_m_Source_Path>
C:\Users\maila\Downloads\mgr\myco-analysis

> <s_m_Source_File>
myco-10-var1-wzakresie.mae

> <i_m_Source_File_Index>
137

> <s_user_SMILES>
N#Cc1c(N)cnc(c1)-c(c2)ccc(c2=3)=CC3N[C@@H]4CC[C@H]([C@H]45)O[C@@H]5c6ccccc6

> <minimizedAffinity>
-10.66964

> <minimizedRMSD>
0.68412

> <CNNscore>
0.8974875808

> <CNNaffinity>
7.2735304832

> <CNN_VS>
6.52790308

> <CNNaffinity_variance>
0.2052118033

$$$$
C1=CC=CC1C(CC)CCC=2C=CC(C=C3)C2C(=[C]345)C4=NC(N)=C5C
                    3D
 Schrodinger Suite 2021-1.
 27 31  0  0  1  0            999 V2000
  -21.0272  -20.4940   12.0218 C   0  0  0  0  0  0
  -24.0979  -19.1092   11.1794 C   0  0  0  0  0  0
  -20.8174  -18.7116   12.8648 C   0  0  0  0  0  0
  -23.1362  -21.3741   11.1783 C   0  0  0  0  0  0
  -25.0558  -22.4147   10.5890 C   0  0  0  0  0  0
  -19.6974  -19.1690   12.2344 C   0  0  0  0  0  0
  -25.2776  -21.1367   10.3444 C   0  0  0  0  0  0
  -19.8229  -20.4558   11.6373 N   0  0  0  0  0  0
  -23.6840  -22.5750   11.0527 C   0  0  0  0  0  0
  -18.4474  -18.4690   12.2290 N   0  0  0  0  0  0
  -22.0836  -19.5801   12.7113 C   0  0  0  0  0  0
  -23.1224  -18.6931   11.9942 C   0  0  0  0  0  0
  -20.8701  -17.3206   13.4203 C   0  0  0  0  0  0
  -22.3300  -20.9957   12.3999 C   0  0  0  0  0  0
  -23.9946  -20.3944   10.4631 C   0  0  0  0  0  0
  -18.3662  -17.4742   12.5276 H   0  0  0  0  0  0
  -17.5820  -18.9453   11.8973 H   0  0  0  0  0  0
  -22.8944  -23.8521   10.9858 C   0  0  0  0  0  0
  -22.6665  -24.2983    9.5240 C   0  0  0  0  0  0
  -21.9539  -23.2378    8.6295 C   0  0  0  0  0  0
  -21.6686  -22.6252    6.1707 C   0  0  0  0  0  0
  -23.6479  -22.0253    7.1800 C   0  0  0  0  0  0
  -22.0869  -21.4856    5.6465 C   0  0  0  0  0  0
  -22.6188  -23.1163    7.2253 C   0  0  0  0  0  0
  -23.3333  -21.1083    6.2811 C   0  0  0  0  0  0
  -20.0173  -24.9847    8.5036 C   0  0  0  0  0  0
  -20.4289  -23.5039    8.5523 C   0  0  0  0  0  0
  1  8  2  0  0  0
  1 11  1  0  0  0
  1 14  1  0  0  0
  2 12  2  0  0  0
  2 15  1  0  0  0
  3  6  2  0  0  0
  3 11  1  0  0  0
  3 13  1  0  0  0
  4  9  2  0  0  0
  4 14  1  0  0  0
  4 15  1  0  0  0
  5  7  2  0  0  0
  5  9  1  0  0  0
  6  8  1  0  0  0
  6 10  1  0  0  0
  7 15  1  0  0  0
  9 18  1  0  0  0
 10 16  1  0  0  0
 10 17  1  0  0  0
 11 12  1  0  0  0
 11 14  2  0  0  0
 18 19  1  0  0  0
 19 20  1  0  0  0
 20 24  1  0  0  0
 20 27  1  0  0  0
 21 23  2  0  0  0
 21 24  1  0  0  0
 22 24  1  0  0  0
 22 25  2  0  0  0
 23 25  1  0  0  0
 26 27  1  0  0  0
M  END
> <s_m_entry_id>
991

> <s_m_entry_name>
10-myco-1_53_lig_gen_fit_add_gna.sdf.8

> <s_m_Source_Path>
C:\Users\maila\Downloads\mgr\myco-analysis

> <s_m_Source_File>
myco-10-var1-wzakresie.mae

> <i_m_Source_File_Index>
138

> <s_user_SMILES>
C1=CC=CC1C(CC)CCC=2C=CC(C=C3)C2C(=[C]345)C4=NC(N)=C5C

> <minimizedAffinity>
-9.2655

> <minimizedRMSD>
0.48566

> <CNNscore>
0.7653163671

> <CNNaffinity>
7.0251030922

> <CNN_VS>
5.3764262199

> <CNNaffinity_variance>
0.1048823372

$$$$
[H]\N=C\[C@@H]1C(N)=NN=C1[C@H]2C=C(C2=3)C=CC3C[C@@H]4CC=C[C@H]4Cc5ccccc5
                    3D
 Schrodinger Suite 2021-1.
 31 35  0  0  1  0            999 V2000
  -23.4693  -20.7986   11.5221 C   0  0  0  0  0  0
  -23.7411  -18.7589   11.6539 C   0  0  0  0  0  0
  -24.3921  -19.7971   11.0554 C   0  0  0  0  0  0
  -23.7540  -21.9655   10.9987 C   0  0  0  0  0  0
  -22.8803  -19.7468   12.2958 C   0  0  2  0  0  0
  -25.0283  -21.7193   10.2239 C   0  0  0  0  0  0
  -25.3928  -20.4130   10.2335 C   0  0  0  0  0  0
  -19.3406  -18.8771   12.8062 C   0  0  0  0  0  0
  -19.2862  -20.0194   12.2167 N   0  0  0  0  0  0
  -20.7348  -18.3426   12.8575 C   0  0  2  0  0  0
  -18.1895  -18.2222   13.3404 N   0  0  0  0  0  0
  -21.4187  -19.4696   12.1479 C   0  0  0  0  0  0
  -20.5774  -20.4045   11.8484 N   0  0  0  0  0  0
  -17.2449  -18.6635   13.2823 H   0  0  0  0  0  0
  -17.2449  -18.6635   13.2823 H   0  0  0  0  0  0
  -20.8356  -17.0234   12.1719 C   0  0  0  0  0  0
  -20.0056  -16.0876   12.4617 N   0  0  0  0  0  0
  -20.0952  -15.1481   12.0557 H   0  0  0  0  0  0
  -23.0121  -23.2508   11.2180 C   0  0  0  0  0  0
  -22.3774  -23.0439    8.7222 C   0  0  1  0  0  0
  -22.7322  -24.0039    9.8956 C   0  0  1  0  0  0
  -20.4838  -24.3477    9.1497 C   0  0  0  0  0  0
  -20.9496  -23.3363    8.4392 C   0  0  0  0  0  0
  -21.5151  -24.9387   10.0406 C   0  0  0  0  0  0
  -23.2384  -23.3029    7.4720 C   0  0  0  0  0  0
  -23.3610  -22.0851    6.5922 C   0  0  0  0  0  0
  -23.7047  -19.8705    4.9020 C   0  0  0  0  0  0
  -22.6586  -22.0034    5.3812 C   0  0  0  0  0  0
  -24.2277  -21.0394    6.9545 C   0  0  0  0  0  0
  -24.4077  -19.9447    6.1063 C   0  0  0  0  0  0
  -22.8274  -20.8954    4.5433 C   0  0  0  0  0  0
  1  3  1  0  0  0
  1  4  2  0  0  0
  1  5  1  0  0  0
  2  3  2  0  0  0
  2  5  1  0  0  0
  3  7  1  0  0  0
  4  6  1  0  0  0
  4 19  1  0  0  0
  5 12  1  0  0  0
  6  7  2  0  0  0
  8  9  2  0  0  0
  8 10  1  0  0  0
  8 11  1  0  0  0
  9 13  1  0  0  0
 10 16  1  0  0  0
 10 12  1  0  0  0
 11 14  1  0  0  0
 11 15  1  0  0  0
 12 13  2  0  0  0
 16 17  2  0  0  0
 17 18  1  0  0  0
 19 21  1  0  0  0
 20 21  1  0  0  0
 20 23  1  0  0  0
 20 25  1  0  0  0
 21 24  1  0  0  0
 22 23  2  0  0  0
 22 24  1  0  0  0
 25 26  1  0  0  0
 26 28  2  0  0  0
 26 29  1  0  0  0
 27 30  1  0  0  0
 27 31  2  0  0  0
 28 31  1  0  0  0
 29 30  2  0  0  0
M  END
> <s_m_entry_id>
992

> <s_m_entry_name>
10-myco-1_53_lig_gen_fit_add_gna.sdf.9

> <s_m_Source_Path>
C:\Users\maila\Downloads\mgr\myco-analysis

> <s_m_Source_File>
myco-10-var1-wzakresie.mae

> <i_m_Source_File_Index>
139

> <s_user_SMILES>
[H]\N=C\[C@@H]1C(N)=NN=C1[C@H]2C=C(C2=3)C=CC3C[C@@H]4CC=C[C@H]4Cc5ccccc5

> <minimizedAffinity>
-9.80868

> <minimizedRMSD>
1.04968

> <CNNscore>
0.7091090083

> <CNNaffinity>
7.275765419

> <CNN_VS>
5.1593108177

> <CNNaffinity_variance>
0.2712646127

$$$$
c1ccc(OC)cc1NC2=CC=C(C2=3)C=CC3C4=NCC(=C4)N
                    3D
 Schrodinger Suite 2021-1.
 26 29  0  0  1  0            999 V2000
  -25.2952  -19.0858   11.1308 C   0  0  0  0  0  0
  -23.0902  -19.4147   11.7496 C   0  0  0  0  0  0
  -24.2849  -22.4930   10.3969 C   0  0  0  0  0  0
  -23.5471  -20.5933   11.3378 C   0  0  0  0  0  0
  -23.1779  -21.9366   10.9145 C   0  0  0  0  0  0
  -24.2216  -18.4726   11.6123 C   0  0  0  0  0  0
  -25.4042  -21.5456   10.4582 C   0  0  0  0  0  0
  -24.9016  -20.4552   10.9841 C   0  0  0  0  0  0
  -20.0395  -17.6039   12.4221 C   0  0  0  0  0  0
  -21.7261  -18.9913   12.0875 C   0  0  0  0  0  0
  -20.7155  -19.7875   12.1997 N   0  0  0  0  0  0
  -21.3372  -17.6019   12.2405 C   0  0  0  0  0  0
  -19.2614  -16.4512   12.6906 N   0  0  0  0  0  0
  -19.5127  -18.9842   12.4147 C   0  0  0  0  0  0
  -19.7015  -15.5038   12.7080 H   0  0  0  0  0  0
  -18.2520  -16.5790   12.9214 H   0  0  0  0  0  0
  -21.8635  -22.4822   10.7636 N   0  0  0  0  0  0
  -21.1967  -22.4715   11.5644 H   0  0  0  0  0  0
  -21.4996  -23.1775    7.1033 C   0  0  0  0  0  0
  -21.5057  -23.1440    9.5429 C   0  0  0  0  0  0
  -21.0593  -24.4693    9.5599 C   0  0  0  0  0  0
  -21.7360  -22.5063    8.3146 C   0  0  0  0  0  0
  -21.0284  -24.4954    7.1361 C   0  0  0  0  0  0
  -20.8095  -25.1392    8.3588 C   0  0  0  0  0  0
  -22.0646  -21.1986    5.6845 C   0  0  0  0  0  0
  -21.7315  -22.5733    5.8591 O   0  0  0  0  0  0
  1  6  2  0  0  0
  1  8  1  0  0  0
  2 10  1  0  0  0
  2  4  2  0  0  0
  2  6  1  0  0  0
  3  5  2  0  0  0
  3  7  1  0  0  0
  4  5  1  0  0  0
  4  8  1  0  0  0
  5 17  1  0  0  0
  7  8  2  0  0  0
  9 12  2  0  0  0
  9 13  1  0  0  0
  9 14  1  0  0  0
 10 11  2  0  0  0
 10 12  1  0  0  0
 11 14  1  0  0  0
 13 15  1  0  0  0
 13 16  1  0  0  0
 17 20  1  0  0  0
 17 18  1  0  0  0
 19 22  2  0  0  0
 19 26  1  0  0  0
 19 23  1  0  0  0
 20 21  2  0  0  0
 20 22  1  0  0  0
 21 24  1  0  0  0
 23 24  2  0  0  0
 25 26  1  0  0  0
M  END
> <s_m_entry_id>
993

> <s_m_entry_name>
10-myco-1_54_lig_gen_fit_add_gna.sdf.1

> <s_m_Source_Path>
C:\Users\maila\Downloads\mgr\myco-analysis

> <s_m_Source_File>
myco-10-var1-wzakresie.mae

> <i_m_Source_File_Index>
140

> <s_user_SMILES>
c1ccc(OC)cc1NC2=CC=C(C2=3)C=CC3C4=NCC(=C4)N

> <minimizedAffinity>
-8.81641

> <minimizedRMSD>
0.40608

> <CNNscore>
0.6785007715

> <CNNaffinity>
6.4261579514

> <CNN_VS>
4.3601531982

> <CNNaffinity_variance>
0.2122996151

$$$$
c1ccc(OC)cc1NC2C=CC(C=23)=CC(=C3)C4=NN=C(C4)N
                    3D
 Schrodinger Suite 2021-1.
 26 29  0  0  1  0            999 V2000
  -23.8182  -19.1654   11.5499 C   0  0  0  0  0  0
  -24.2181  -20.3817   11.2423 C   0  0  0  0  0  0
  -23.2982  -22.3191   10.6767 C   0  0  0  0  0  0
  -23.2021  -21.3143   11.5180 C   0  0  0  0  0  0
  -25.0485  -20.9092   10.1804 C   0  0  0  0  0  0
  -24.5063  -22.0868    9.8504 C   0  0  0  0  0  0
  -22.0620  -20.5953   12.0305 C   0  0  0  0  0  0
  -22.4451  -19.3171   12.0904 C   0  0  0  0  0  0
  -20.7885  -16.1212   12.6810 C   0  0  0  0  0  0
  -21.5576  -18.1876   12.3664 C   0  0  0  0  0  0
  -19.8074  -16.8677   12.3016 N   0  0  0  0  0  0
  -22.0445  -16.8748   12.8372 C   0  0  0  0  0  0
  -20.6789  -14.7216   12.8852 N   0  0  0  0  0  0
  -20.2936  -18.1625   12.0917 N   0  0  0  0  0  0
  -20.0853  -14.3584   13.6416 H   0  0  0  0  0  0
  -21.4446  -14.0863   12.6058 H   0  0  0  0  0  0
  -22.2432  -23.2560   10.4337 N   0  0  0  0  0  0
  -21.8287  -23.7496   11.2537 H   0  0  0  0  0  0
  -21.7622  -23.5990    9.1320 C   0  0  0  0  0  0
  -21.5488  -23.1350    6.7497 C   0  0  0  0  0  0
  -20.9823  -24.7502    8.9747 C   0  0  0  0  0  0
  -20.8294  -24.3283    6.6024 C   0  0  0  0  0  0
  -22.0024  -22.7664    8.0271 C   0  0  0  0  0  0
  -20.5155  -25.1116    7.7132 C   0  0  0  0  0  0
  -22.1271  -20.9606    5.6583 C   0  0  0  0  0  0
  -21.7895  -22.3447    5.6161 O   0  0  0  0  0  0
  1  2  2  0  0  0
  1  8  1  0  0  0
  2  4  1  0  0  0
  2  5  1  0  0  0
  3  4  2  0  0  0
  3 17  1  0  0  0
  3  6  1  0  0  0
  4  7  1  0  0  0
  5  6  2  0  0  0
  7  8  2  0  0  0
  8 10  1  0  0  0
  9 11  2  0  0  0
  9 12  1  0  0  0
  9 13  1  0  0  0
 10 12  1  0  0  0
 10 14  2  0  0  0
 11 14  1  0  0  0
 13 15  1  0  0  0
 13 16  1  0  0  0
 17 19  1  0  0  0
 17 18  1  0  0  0
 19 21  2  0  0  0
 19 23  1  0  0  0
 20 22  1  0  0  0
 20 23  2  0  0  0
 20 26  1  0  0  0
 21 24  1  0  0  0
 22 24  2  0  0  0
 25 26  1  0  0  0
M  END
> <s_m_entry_id>
994

> <s_m_entry_name>
10-myco-1_54_lig_gen_fit_add_gna.sdf.2

> <s_m_Source_Path>
C:\Users\maila\Downloads\mgr\myco-analysis

> <s_m_Source_File>
myco-10-var1-wzakresie.mae

> <i_m_Source_File_Index>
141

> <s_user_SMILES>
c1ccc(OC)cc1NC2C=CC(C=23)=CC(=C3)C4=NN=C(C4)N

> <minimizedAffinity>
-8.99467

> <minimizedRMSD>
0.52716

> <CNNscore>
0.7203003764

> <CNNaffinity>
6.2851600647

> <CNN_VS>
4.527203083

> <CNNaffinity_variance>
0.1114962697

$$$$
c1ccc(OC)cc1CN2C(=[C]234)C3=CCC(=C4)c5cc(N)n[nH]5
                    3D
 Schrodinger Suite 2021-1.
 26 30  0  0  1  0            999 V2000
  -24.4192  -18.6723   11.6180 C   0  0  0  0  0  0
  -22.0880  -20.3587   11.5945 C   0  0  0  0  0  0
  -21.9363  -19.0485   12.0174 C   0  0  0  0  0  0
  -24.2856  -19.8871   11.1708 C   0  0  0  0  0  0
  -24.5743  -21.2701   10.7585 C   0  0  0  0  0  0
  -23.5062  -22.2319   11.0669 N   0  0  0  0  0  0
  -23.1150  -18.0842   12.0993 C   0  0  0  0  0  0
  -23.2164  -20.8464   10.6559 C   0  0  0  0  0  0
  -20.6092  -18.4840   12.3688 C   0  0  0  0  0  0
  -18.8890  -17.2187   12.7807 C   0  0  0  0  0  0
  -20.2235  -17.1471   12.4144 C   0  0  0  0  0  0
  -19.5187  -19.2235   12.5808 N   0  0  0  0  0  0
  -17.9386  -16.1951   12.7019 N   0  0  0  0  0  0
  -18.4863  -18.4736   12.8404 N   0  0  0  0  0  0
  -19.4170  -20.2310   12.5201 H   0  0  0  0  0  0
  -17.2504  -16.1085   13.4786 H   0  0  0  0  0  0
  -17.5238  -16.1270   11.7538 H   0  0  0  0  0  0
  -23.4775  -23.2631   10.0087 C   0  0  0  0  0  0
  -21.6989  -22.4161    6.7370 C   0  0  0  0  0  0
  -20.2288  -23.7670    8.1195 C   0  0  0  0  0  0
  -20.4977  -23.1131    6.9189 C   0  0  0  0  0  0
  -22.6536  -22.4157    7.7736 C   0  0  0  0  0  0
  -22.3898  -23.0894    8.9810 C   0  0  0  0  0  0
  -21.1602  -23.7411    9.1556 C   0  0  0  0  0  0
  -22.4436  -20.4307    5.3947 C   0  0  0  0  0  0
  -21.8950  -21.7391    5.5229 O   0  0  0  0  0  0
  1  4  2  0  0  0
  1  7  1  0  0  0
  2  3  2  0  0  0
  2  8  1  0  0  0
  3  9  1  0  0  0
  3  7  1  0  0  0
  4  5  1  0  0  0
  4  8  1  0  0  0
  5  6  1  0  0  0
  5  8  2  0  0  0
  6 18  1  0  0  0
  6  8  1  0  0  0
  9 11  2  0  0  0
  9 12  1  0  0  0
 10 11  1  0  0  0
 10 13  1  0  0  0
 10 14  2  0  0  0
 12 14  1  0  0  0
 12 15  1  0  0  0
 13 16  1  0  0  0
 13 17  1  0  0  0
 18 23  1  0  0  0
 19 21  2  0  0  0
 19 22  1  0  0  0
 19 26  1  0  0  0
 20 21  1  0  0  0
 20 24  2  0  0  0
 22 23  2  0  0  0
 23 24  1  0  0  0
 25 26  1  0  0  0
M  END
> <s_m_entry_id>
995

> <s_m_entry_name>
10-myco-1_54_lig_gen_fit_add_gna.sdf.3

> <s_m_Source_Path>
C:\Users\maila\Downloads\mgr\myco-analysis

> <s_m_Source_File>
myco-10-var1-wzakresie.mae

> <i_m_Source_File_Index>
142

> <s_user_SMILES>
c1ccc(OC)cc1CN2C(=[C]234)C3=CCC(=C4)c5cc(N)n[nH]5

> <minimizedAffinity>
-8.51461

> <minimizedRMSD>
0.48148

> <CNNscore>
0.8787211776

> <CNNaffinity>
6.4874677658

> <CNN_VS>
5.7006754875

> <CNNaffinity_variance>
0.2187488377

$$$$
c1ccc(OC)cc1CN(C=CC2)CC(C=23)=C3c4cc(N)n[nH]4
                    3D
 Schrodinger Suite 2021-1.
 26 29  0  0  1  0            999 V2000
  -25.5105  -19.3309   10.8230 C   0  0  0  0  0  0
  -22.7053  -19.8223   11.6761 C   0  0  0  0  0  0
  -22.7987  -21.2019   11.2727 C   0  0  0  0  0  0
  -22.1119  -18.6846   12.1201 C   0  0  0  0  0  0
  -23.4763  -18.6781   11.7844 C   0  0  0  0  0  0
  -24.7027  -18.3644   11.5700 C   0  0  0  0  0  0
  -25.2628  -20.6239   10.4614 C   0  0  0  0  0  0
  -23.9997  -21.3743   10.4365 N   0  0  0  0  0  0
  -20.8111  -18.2109   12.4873 C   0  0  0  0  0  0
  -18.8995  -17.2273   12.6082 C   0  0  0  0  0  0
  -18.6689  -18.5446   12.6238 N   0  0  0  0  0  0
  -20.2588  -16.9505   12.4813 C   0  0  0  0  0  0
  -17.8551  -16.3113   12.3731 N   0  0  0  0  0  0
  -19.8470  -19.1194   12.5465 N   0  0  0  0  0  0
  -16.8923  -16.5315   12.7055 H   0  0  0  0  0  0
  -17.9747  -15.6767   11.5645 H   0  0  0  0  0  0
  -20.0188  -20.1230   12.3301 H   0  0  0  0  0  0
  -23.8955  -22.4361    9.4395 C   0  0  0  0  0  0
  -23.2775  -21.8144    8.0499 C   0  0  0  0  0  0
  -23.0812  -20.3303    6.0194 C   0  0  0  0  0  0
  -21.5644  -22.2532    6.3172 C   0  0  0  0  0  0
  -22.0169  -21.1416    5.5963 C   0  0  0  0  0  0
  -23.7493  -20.5677    7.2289 C   0  0  0  0  0  0
  -22.1493  -22.6262    7.5199 C   0  0  0  0  0  0
  -23.4710  -19.2738    5.1858 O   0  0  0  0  0  0
  -24.8277  -18.8947    4.9719 C   0  0  0  0  0  0
  1  6  1  0  0  0
  1  7  2  0  0  0
  2  3  1  0  0  0
  2  4  2  0  0  0
  2  5  1  0  0  0
  3  8  1  0  0  0
  4  9  1  0  0  0
  4  5  1  0  0  0
  5  6  2  0  0  0
  7  8  1  0  0  0
  8 18  1  0  0  0
  9 12  2  0  0  0
  9 14  1  0  0  0
 10 11  2  0  0  0
 10 12  1  0  0  0
 10 13  1  0  0  0
 11 14  1  0  0  0
 13 15  1  0  0  0
 13 16  1  0  0  0
 14 17  1  0  0  0
 18 19  1  0  0  0
 19 23  2  0  0  0
 19 24  1  0  0  0
 20 22  2  0  0  0
 20 25  1  0  0  0
 20 23  1  0  0  0
 21 22  1  0  0  0
 21 24  2  0  0  0
 25 26  1  0  0  0
M  END
> <s_m_entry_id>
996

> <s_m_entry_name>
10-myco-1_54_lig_gen_fit_add_gna.sdf.4

> <s_m_Source_Path>
C:\Users\maila\Downloads\mgr\myco-analysis

> <s_m_Source_File>
myco-10-var1-wzakresie.mae

> <i_m_Source_File_Index>
143

> <s_user_SMILES>
c1ccc(OC)cc1CN(C=CC2)CC(C=23)=C3c4cc(N)n[nH]4

> <minimizedAffinity>
-9.81069

> <minimizedRMSD>
0.31382

> <CNNscore>
0.7761536837

> <CNNaffinity>
6.2123999596

> <CNN_VS>
4.8217773438

> <CNNaffinity_variance>
0.2805477679

$$$$
CCCOc(ccc1)cc1CC2CC=NC(C=23)=CC(=C3)c4cc(N)[nH]n4
                    3D
 Schrodinger Suite 2021-1.
 29 32  0  0  1  0            999 V2000
  -23.2008  -20.7838   11.2795 C   0  0  0  0  0  0
  -23.8846  -19.5259   11.2287 C   0  0  0  0  0  0
  -23.7170  -21.9005   10.7648 C   0  0  0  0  0  0
  -23.0996  -18.5533   11.6673 C   0  0  0  0  0  0
  -25.1609  -21.8738   10.2929 C   0  0  0  0  0  0
  -25.2007  -19.4174   10.7037 N   0  0  0  0  0  0
  -21.8387  -19.1982   12.0661 C   0  0  0  0  0  0
  -25.7998  -20.4897   10.2663 C   0  0  0  0  0  0
  -21.9045  -20.5103   11.8510 C   0  0  0  0  0  0
  -18.9169  -17.2103   12.6353 C   0  0  0  0  0  0
  -20.6010  -18.5599   12.5003 C   0  0  0  0  0  0
  -20.2935  -17.2180   12.4967 C   0  0  0  0  0  0
  -18.4622  -18.4500   12.7786 N   0  0  0  0  0  0
  -18.0706  -16.1741   12.2040 N   0  0  0  0  0  0
  -19.4780  -19.2689   12.6502 N   0  0  0  0  0  0
  -17.4656  -18.7484   12.8384 H   0  0  0  0  0  0
  -17.0378  -16.2802   12.2947 H   0  0  0  0  0  0
  -18.4627  -15.4806   11.5481 H   0  0  0  0  0  0
  -22.9159  -23.1821   10.6770 C   0  0  0  0  0  0
  -22.2381  -23.4137    9.3447 C   0  0  0  0  0  0
  -21.3742  -24.5126    9.2251 C   0  0  0  0  0  0
  -21.8429  -22.8838    6.9922 C   0  0  0  0  0  0
  -22.3846  -22.5424    8.2450 C   0  0  0  0  0  0
  -20.7522  -24.7925    8.0088 C   0  0  0  0  0  0
  -21.0378  -24.0203    6.8838 C   0  0  0  0  0  0
  -22.1111  -22.1430    5.8326 O   0  0  0  0  0  0
  -22.0881  -20.7201    5.7635 C   0  0  0  0  0  0
  -24.1465  -19.7488    6.9401 C   0  0  0  0  0  0
  -23.4920  -20.1187    5.6108 C   0  0  0  0  0  0
  1  2  1  0  0  0
  1  3  2  0  0  0
  1  9  1  0  0  0
  2  4  2  0  0  0
  2  6  1  0  0  0
  3 19  1  0  0  0
  3  5  1  0  0  0
  4  7  1  0  0  0
  5  8  1  0  0  0
  6  8  2  0  0  0
  7 11  1  0  0  0
  7  9  2  0  0  0
 10 12  2  0  0  0
 10 13  1  0  0  0
 10 14  1  0  0  0
 11 12  1  0  0  0
 11 15  2  0  0  0
 13 15  1  0  0  0
 13 16  1  0  0  0
 14 17  1  0  0  0
 14 18  1  0  0  0
 19 20  1  0  0  0
 20 21  2  0  0  0
 20 23  1  0  0  0
 21 24  1  0  0  0
 22 23  2  0  0  0
 22 26  1  0  0  0
 22 25  1  0  0  0
 24 25  2  0  0  0
 26 27  1  0  0  0
 27 29  1  0  0  0
 28 29  1  0  0  0
M  END
> <s_m_entry_id>
997

> <s_m_entry_name>
10-myco-1_54_lig_gen_fit_add_gna.sdf.6

> <s_m_Source_Path>
C:\Users\maila\Downloads\mgr\myco-analysis

> <s_m_Source_File>
myco-10-var1-wzakresie.mae

> <i_m_Source_File_Index>
144

> <s_user_SMILES>
CCCOc(ccc1)cc1CC2CC=NC(C=23)=CC(=C3)c4cc(N)[nH]n4

> <minimizedAffinity>
-10.22348

> <minimizedRMSD>
0.46094

> <CNNscore>
0.859829843

> <CNNaffinity>
6.989906311

> <CNN_VS>
6.0101299286

> <CNNaffinity_variance>
0.2558113039

$$$$
N1=NC(N)=CC1=C=CC2=CC(=CC2)Cc3cc(OC)ccc3
                    3D
 Schrodinger Suite 2021-1.
 24 26  0  0  1  0            999 V2000
  -25.2775  -20.8373   10.2668 C   0  0  0  0  0  0
  -23.9808  -19.2972   11.4023 C   0  0  0  0  0  0
  -23.2115  -20.3052   11.0085 C   0  0  0  0  0  0
  -24.0174  -21.2491   10.2721 C   0  0  0  0  0  0
  -25.3919  -19.5260   10.9763 C   0  0  0  0  0  0
  -18.8638  -17.5896   12.2132 C   0  0  0  0  0  0
  -22.2411  -17.9719   12.3991 C   0  0  0  0  0  0
  -20.0137  -16.9435   12.3545 C   0  0  0  0  0  0
  -23.5069  -18.0954   12.1106 C   0  0  0  0  0  0
  -20.2507  -19.2327   12.5701 N   0  0  0  0  0  0
  -19.0274  -18.9888   12.3455 N   0  0  0  0  0  0
  -20.9631  -18.0087   12.6328 C   0  0  0  0  0  0
  -17.6336  -16.9987   11.8314 N   0  0  0  0  0  0
  -16.7648  -17.5736   11.7842 H   0  0  0  0  0  0
  -17.6345  -16.0390   11.4456 H   0  0  0  0  0  0
  -23.4431  -22.2954    9.3637 C   0  0  0  0  0  0
  -22.3074  -20.8467    5.4449 C   0  0  0  0  0  0
  -23.0678  -21.7595    7.9957 C   0  0  0  0  0  0
  -23.3573  -20.2060    6.1264 C   0  0  0  0  0  0
  -22.0077  -22.3661    7.3092 C   0  0  0  0  0  0
  -23.7180  -20.6560    7.4004 C   0  0  0  0  0  0
  -21.6432  -21.9250    6.0377 C   0  0  0  0  0  0
  -24.1137  -18.8122    4.1877 C   0  0  0  0  0  0
  -24.0817  -19.1389    5.5728 O   0  0  0  0  0  0
  1  4  2  0  0  0
  1  5  1  0  0  0
  2  9  1  0  0  0
  2  3  2  0  0  0
  2  5  1  0  0  0
  3  4  1  0  0  0
  4 16  1  0  0  0
  6  8  2  0  0  0
  6 11  1  0  0  0
  6 13  1  0  0  0
  7  9  2  0  0  0
  7 12  2  0  0  0
  8 12  1  0  0  0
 10 11  2  0  0  0
 10 12  1  0  0  0
 13 14  1  0  0  0
 13 15  1  0  0  0
 16 18  1  0  0  0
 17 19  2  0  0  0
 17 22  1  0  0  0
 18 20  1  0  0  0
 18 21  2  0  0  0
 19 21  1  0  0  0
 19 24  1  0  0  0
 20 22  2  0  0  0
 23 24  1  0  0  0
M  END
> <s_m_entry_id>
998

> <s_m_entry_name>
10-myco-1_54_lig_gen_fit_add_gna.sdf.7

> <s_m_Source_Path>
C:\Users\maila\Downloads\mgr\myco-analysis

> <s_m_Source_File>
myco-10-var1-wzakresie.mae

> <i_m_Source_File_Index>
145

> <s_user_SMILES>
N1=NC(N)=CC1=C=CC2=CC(=CC2)Cc3cc(OC)ccc3

> <minimizedAffinity>
-10.41736

> <minimizedRMSD>
1.01811

> <CNNscore>
0.9319182634

> <CNNaffinity>
6.7244262695

> <CNN_VS>
6.2666158676

> <CNNaffinity_variance>
0.0672755092

$$$$
COCC(=CC1)[C@@H](C=12)[C@@H]2n3ccc(c34)=CCC=4c5cc(N)[nH]n5
                    3D
 Schrodinger Suite 2021-1.
 26 30  0  0  1  0            999 V2000
  -22.0857  -18.6830   12.1139 C   0  0  0  0  0  0
  -23.0034  -19.5167   11.5518 C   0  0  0  0  0  0
  -24.2026  -18.9275   11.6486 C   0  0  0  0  0  0
  -22.8122  -17.5254   12.6825 C   0  0  0  0  0  0
  -25.1196  -19.5511   10.8950 C   0  0  0  0  0  0
  -23.0672  -20.5976   10.6988 N   0  0  0  0  0  0
  -24.4105  -20.5897   10.3593 C   0  0  0  0  0  0
  -24.2267  -17.8128   12.3043 C   0  0  0  0  0  0
  -18.6984  -17.5921   12.5059 C   0  0  0  0  0  0
  -20.6312  -18.5099   12.0869 C   0  0  0  0  0  0
  -19.9766  -17.2762   12.1661 C   0  0  0  0  0  0
  -18.6018  -18.9000   12.6770 N   0  0  0  0  0  0
  -17.6202  -16.6881   12.6710 N   0  0  0  0  0  0
  -19.7798  -19.4594   12.4394 N   0  0  0  0  0  0
  -17.7546  -19.3843   13.0284 H   0  0  0  0  0  0
  -16.7122  -17.0074   13.0739 H   0  0  0  0  0  0
  -17.7049  -15.7431   12.2557 H   0  0  0  0  0  0
  -22.7803  -22.2059    8.2160 C   0  0  0  0  0  0
  -21.5887  -22.5817    7.7130 C   0  0  0  0  0  0
  -21.4831  -22.7628    9.7942 C   0  0  0  0  0  0
  -22.9374  -22.6663    9.6788 C   0  0  1  0  0  0
  -20.6813  -22.9444    8.7870 C   0  0  0  0  0  0
  -22.4080  -21.9314   10.7900 C   0  0  2  0  0  0
  -23.5649  -21.0817    7.5679 C   0  0  0  0  0  0
  -23.0335  -20.7044    6.3082 O   0  0  0  0  0  0
  -23.9526  -19.9252    5.5845 C   0  0  0  0  0  0
  1 10  1  0  0  0
  1  2  2  0  0  0
  1  4  1  0  0  0
  2  3  1  0  0  0
  2  6  1  0  0  0
  3  5  1  0  0  0
  3  8  2  0  0  0
  4  8  1  0  0  0
  5  7  2  0  0  0
  6 23  1  0  0  0
  6  7  1  0  0  0
  9 11  2  0  0  0
  9 12  1  0  0  0
  9 13  1  0  0  0
 10 11  1  0  0  0
 10 14  2  0  0  0
 12 14  1  0  0  0
 12 15  1  0  0  0
 13 16  1  0  0  0
 13 17  1  0  0  0
 18 19  2  0  0  0
 18 21  1  0  0  0
 18 24  1  0  0  0
 19 22  1  0  0  0
 20 21  1  0  0  0
 20 22  2  0  0  0
 20 23  1  0  0  0
 21 23  1  0  0  0
 24 25  1  0  0  0
 25 26  1  0  0  0
M  END
> <s_m_entry_id>
999

> <s_m_entry_name>
10-myco-1_54_lig_gen_fit_add_gna.sdf.8

> <s_m_Source_Path>
C:\Users\maila\Downloads\mgr\myco-analysis

> <s_m_Source_File>
myco-10-var1-wzakresie.mae

> <i_m_Source_File_Index>
146

> <s_user_SMILES>
COCC(=CC1)[C@@H](C=12)[C@@H]2n3ccc(c34)=CCC=4c5cc(N)[nH]n5

> <minimizedAffinity>
-8.25398

> <minimizedRMSD>
0.64165

> <CNNscore>
0.7989164591

> <CNNaffinity>
6.5693101883

> <CNN_VS>
5.2483301163

> <CNNaffinity_variance>
0.1190517098

$$$$
C1C=C(C)C=C1CC=2C=CC(C23)=CC(=C3)c4cc(N)[nH]n4
                    3D
 Schrodinger Suite 2021-1.
 24 27  0  0  1  0            999 V2000
  -23.1671  -18.2616   11.9714 C   0  0  0  0  0  0
  -24.0887  -19.0727   11.5154 C   0  0  0  0  0  0
  -24.4037  -21.0620   10.5850 C   0  0  0  0  0  0
  -25.5935  -20.2103   10.3821 C   0  0  0  0  0  0
  -23.5594  -20.3430   11.2916 C   0  0  0  0  0  0
  -21.9495  -19.0732   12.0780 C   0  0  0  0  0  0
  -22.1699  -20.3362   11.6754 C   0  0  0  0  0  0
  -25.3957  -18.9975   10.9132 C   0  0  0  0  0  0
  -19.5680  -19.3115   12.5333 N   0  0  0  0  0  0
  -18.9023  -17.2791   12.6206 C   0  0  0  0  0  0
  -20.6405  -18.5344   12.3973 C   0  0  0  0  0  0
  -20.2686  -17.2084   12.4587 C   0  0  0  0  0  0
  -17.9993  -16.2319   12.3626 N   0  0  0  0  0  0
  -18.5118  -18.5476   12.6955 N   0  0  0  0  0  0
  -16.9800  -16.3644   12.5290 H   0  0  0  0  0  0
  -18.3417  -15.4548   11.7749 H   0  0  0  0  0  0
  -17.5360  -18.8963   12.7824 H   0  0  0  0  0  0
  -24.1363  -22.3668    9.9161 C   0  0  0  0  0  0
  -23.2861  -22.1903    8.6926 C   0  0  0  0  0  0
  -23.4423  -21.2258    7.7956 C   0  0  0  0  0  0
  -22.1886  -23.1209    8.2841 C   0  0  0  0  0  0
  -22.3089  -20.5531    5.5344 C   0  0  0  0  0  0
  -22.4801  -21.4319    6.7301 C   0  0  0  0  0  0
  -21.7582  -22.5117    6.9897 C   0  0  0  0  0  0
  1  2  2  0  0  0
  1  6  1  0  0  0
  2  5  1  0  0  0
  2  8  1  0  0  0
  3  4  1  0  0  0
  3  5  2  0  0  0
  3 18  1  0  0  0
  4  8  2  0  0  0
  5  7  1  0  0  0
  6 11  1  0  0  0
  6  7  2  0  0  0
  9 11  2  0  0  0
  9 14  1  0  0  0
 10 12  2  0  0  0
 10 13  1  0  0  0
 10 14  1  0  0  0
 11 12  1  0  0  0
 13 15  1  0  0  0
 13 16  1  0  0  0
 14 17  1  0  0  0
 18 19  1  0  0  0
 19 20  2  0  0  0
 19 21  1  0  0  0
 20 23  1  0  0  0
 21 24  1  0  0  0
 22 23  1  0  0  0
 23 24  2  0  0  0
M  END
> <s_m_entry_id>
1000

> <s_m_entry_name>
10-myco-1_54_lig_gen_fit_add_gna.sdf.9

> <s_m_Source_Path>
C:\Users\maila\Downloads\mgr\myco-analysis

> <s_m_Source_File>
myco-10-var1-wzakresie.mae

> <i_m_Source_File_Index>
147

> <s_user_SMILES>
C1C=C(C)C=C1CC=2C=CC(C23)=CC(=C3)c4cc(N)[nH]n4

> <minimizedAffinity>
-10.32907

> <minimizedRMSD>
0.5366

> <CNNscore>
0.9000794888

> <CNNaffinity>
6.8092851639

> <CNN_VS>
6.1288981438

> <CNNaffinity_variance>
0.0316630825

$$$$
COC(C1)=CC=C1CC=2C=NC(C23)=CC=C(C3)C4=NN=C(C4)N
                    3D
 Schrodinger Suite 2021-1.
 25 28  0  0  1  0            999 V2000
  -21.9392  -19.0056   12.0781 C   0  0  0  0  0  0
  -23.0085  -18.1845   12.0172 C   0  0  0  0  0  0
  -24.4576  -19.9362   11.1770 C   0  0  0  0  0  0
  -22.0821  -20.5153   11.9017 C   0  0  0  0  0  0
  -25.1976  -21.7882   10.3730 C   0  0  0  0  0  0
  -25.5950  -20.5739   10.6154 N   0  0  0  0  0  0
  -23.7988  -22.0014   10.7764 C   0  0  0  0  0  0
  -23.3644  -20.8485   11.2377 C   0  0  0  0  0  0
  -24.3469  -18.6782   11.5854 C   0  0  0  0  0  0
  -18.6626  -17.3921   12.7510 C   0  0  0  0  0  0
  -17.5999  -16.4675   12.8370 N   0  0  0  0  0  0
  -18.4403  -18.6487   12.8148 N   0  0  0  0  0  0
  -20.5818  -18.4922   12.3294 C   0  0  0  0  0  0
  -20.0793  -17.0798   12.3673 C   0  0  0  0  0  0
  -19.6246  -19.3141   12.5496 N   0  0  0  0  0  0
  -16.8281  -16.6370   13.5183 H   0  0  0  0  0  0
  -17.3614  -15.9729   11.9597 H   0  0  0  0  0  0
  -22.9950  -23.2605   10.6573 C   0  0  0  0  0  0
  -22.4333  -23.4329    9.2732 C   0  0  0  0  0  0
  -21.8318  -23.1806    7.0605 C   0  0  0  0  0  0
  -21.6699  -24.4561    8.9121 C   0  0  0  0  0  0
  -22.6103  -22.4823    8.1276 C   0  0  0  0  0  0
  -21.2969  -24.2998    7.5165 C   0  0  0  0  0  0
  -21.6835  -22.7423    5.7422 O   0  0  0  0  0  0
  -22.2386  -21.5183    5.2761 C   0  0  0  0  0  0
  1  2  2  0  0  0
  1  4  1  0  0  0
  1 13  1  0  0  0
  2  9  1  0  0  0
  3  6  1  0  0  0
  3  8  1  0  0  0
  3  9  2  0  0  0
  4  8  1  0  0  0
  5  6  2  0  0  0
  5  7  1  0  0  0
  7 18  1  0  0  0
  7  8  2  0  0  0
 10 11  1  0  0  0
 10 12  2  0  0  0
 10 14  1  0  0  0
 11 16  1  0  0  0
 11 17  1  0  0  0
 12 15  1  0  0  0
 13 14  1  0  0  0
 13 15  2  0  0  0
 18 19  1  0  0  0
 19 21  2  0  0  0
 19 22  1  0  0  0
 20 22  1  0  0  0
 20 23  2  0  0  0
 20 24  1  0  0  0
 21 23  1  0  0  0
 24 25  1  0  0  0
M  END
> <s_m_entry_id>
1001

> <s_m_entry_name>
10-myco-1_54_lig_gen_fit_add_gna.sdf.10

> <s_m_Source_Path>
C:\Users\maila\Downloads\mgr\myco-analysis

> <s_m_Source_File>
myco-10-var1-wzakresie.mae

> <i_m_Source_File_Index>
148

> <s_user_SMILES>
COC(C1)=CC=C1CC=2C=NC(C23)=CC=C(C3)C4=NN=C(C4)N

> <minimizedAffinity>
-9.79519

> <minimizedRMSD>
0.35117

> <CNNscore>
0.9206712246

> <CNNaffinity>
6.9918379784

> <CNN_VS>
6.437183857

> <CNNaffinity_variance>
0.1031476855

$$$$
c1cnccc1C(=O)CCc2cc(OC)ccc2
                    3D
 Schrodinger Suite 2021-1.
 18 19  0  0  1  0            999 V2000
  -22.8832   21.1328  -12.2468 C   0  0  0  0  0  0
  -22.8497   21.1605  -10.7433 C   0  0  0  0  0  0
  -23.6063   20.2407   -8.6137 C   0  0  0  0  0  0
  -22.8378   21.1988   -7.9407 C   0  0  0  0  0  0
  -22.0775   22.1074  -10.0546 C   0  0  0  0  0  0
  -23.6040   20.2243  -10.0195 C   0  0  0  0  0  0
  -22.0840   22.1336   -8.6573 C   0  0  0  0  0  0
  -24.3755   19.3399   -7.8592 O   0  0  0  0  0  0
  -25.6372   18.8202   -8.2751 C   0  0  0  0  0  0
  -22.3667   19.7928  -12.8042 C   0  0  0  0  0  0
  -20.1725   20.6874  -12.5900 O   0  0  0  0  0  0
  -20.8645   19.6601  -12.8039 C   0  0  0  0  0  0
  -18.1362   17.0286  -12.9382 C   0  0  0  0  0  0
  -20.2269   15.9262  -13.0604 C   0  0  0  0  0  0
  -18.7711   18.2686  -12.9333 C   0  0  0  0  0  0
  -20.9016   17.1495  -13.0968 C   0  0  0  0  0  0
  -20.1773   18.3482  -13.0054 C   0  0  0  0  0  0
  -18.8728   15.8933  -12.9850 N   0  0  0  0  0  0
  1  2  1  0  0  0
  1 10  1  0  0  0
  2  5  2  0  0  0
  2  6  1  0  0  0
  3  4  1  0  0  0
  3  6  2  0  0  0
  3  8  1  0  0  0
  4  7  2  0  0  0
  5  7  1  0  0  0
  8  9  1  0  0  0
 10 12  1  0  0  0
 11 12  2  0  0  0
 12 17  1  0  0  0
 13 15  2  0  0  0
 13 18  1  0  0  0
 14 16  1  0  0  0
 14 18  2  0  0  0
 15 17  1  0  0  0
 16 17  2  0  0  0
M  END
> <s_m_entry_id>
1002

> <s_m_entry_name>
10-myco-1_55_lig_gen_fit_add_gna.sdf.1

> <s_m_Source_Path>
C:\Users\maila\Downloads\mgr\myco-analysis

> <s_m_Source_File>
myco-10-var1-wzakresie.mae

> <i_m_Source_File_Index>
149

> <s_user_SMILES>
c1cnccc1C(=O)CCc2cc(OC)ccc2

> <minimizedAffinity>
-8.58703

> <minimizedRMSD>
0.91552

> <CNNscore>
0.9776237607

> <CNNaffinity>
6.0437083244

> <CNN_VS>
5.9084730148

> <CNNaffinity_variance>
0.2916610837

$$$$
c1cnccc1C(=O)CCc2cc(OC)ccc2
                    3D
 Schrodinger Suite 2021-1.
 18 19  0  0  1  0            999 V2000
  -22.8836   21.1325  -12.2465 C   0  0  0  0  0  0
  -23.6059   20.2411   -8.6132 C   0  0  0  0  0  0
  -22.0775   22.1077  -10.0546 C   0  0  0  0  0  0
  -22.8500   21.1608  -10.7431 C   0  0  0  0  0  0
  -22.8372   21.1992   -7.9406 C   0  0  0  0  0  0
  -23.6042   20.2247  -10.0190 C   0  0  0  0  0  0
  -22.0836   22.1339   -8.6573 C   0  0  0  0  0  0
  -24.3748   19.3403   -7.8585 O   0  0  0  0  0  0
  -25.6361   18.8196   -8.2747 C   0  0  0  0  0  0
  -22.3673   19.7920  -12.8032 C   0  0  0  0  0  0
  -20.1733   20.6873  -12.5903 O   0  0  0  0  0  0
  -20.8652   19.6599  -12.8040 C   0  0  0  0  0  0
  -20.1777   18.3481  -13.0057 C   0  0  0  0  0  0
  -20.2267   15.9261  -13.0603 C   0  0  0  0  0  0
  -18.7714   18.2688  -12.9337 C   0  0  0  0  0  0
  -18.8727   15.8935  -12.9849 N   0  0  0  0  0  0
  -18.1363   17.0290  -12.9382 C   0  0  0  0  0  0
  -20.9017   17.1492  -13.0969 C   0  0  0  0  0  0
  1  4  1  0  0  0
  1 10  1  0  0  0
  2  5  2  0  0  0
  2  6  1  0  0  0
  2  8  1  0  0  0
  3  4  1  0  0  0
  3  7  2  0  0  0
  4  6  2  0  0  0
  5  7  1  0  0  0
  8  9  1  0  0  0
 10 12  1  0  0  0
 11 12  2  0  0  0
 12 13  1  0  0  0
 13 15  2  0  0  0
 13 18  1  0  0  0
 14 16  1  0  0  0
 14 18  2  0  0  0
 15 17  1  0  0  0
 16 17  2  0  0  0
M  END
> <s_m_entry_id>
1003

> <s_m_entry_name>
10-myco-1_55_lig_gen_fit_add_gna.sdf.2

> <s_m_Source_Path>
C:\Users\maila\Downloads\mgr\myco-analysis

> <s_m_Source_File>
myco-10-var1-wzakresie.mae

> <i_m_Source_File_Index>
150

> <s_user_SMILES>
c1cnccc1C(=O)CCc2cc(OC)ccc2

> <minimizedAffinity>
-8.58802

> <minimizedRMSD>
0.91356

> <CNNscore>
0.9776418805

> <CNNaffinity>
6.0437898636

> <CNN_VS>
5.9086623192

> <CNNaffinity_variance>
0.2915813923

$$$$
c1cnccc1C(=O)CCc2cc(OC)ccc2
                    3D
 Schrodinger Suite 2021-1.
 18 19  0  0  1  0            999 V2000
  -22.8903   21.1263  -12.2426 C   0  0  0  0  0  0
  -22.8469   21.1634  -10.7396 C   0  0  0  0  0  0
  -22.8162   21.2189   -7.9375 C   0  0  0  0  0  0
  -23.5866   20.2547   -8.5994 C   0  0  0  0  0  0
  -22.0724   22.1164  -10.0619 C   0  0  0  0  0  0
  -23.5939   20.2297  -10.0050 C   0  0  0  0  0  0
  -22.0696   22.1512   -8.6648 C   0  0  0  0  0  0
  -25.5896   18.7957   -8.2583 C   0  0  0  0  0  0
  -24.3484   19.3566   -7.8343 O   0  0  0  0  0  0
  -22.3730   19.7846  -12.7952 C   0  0  0  0  0  0
  -20.1805   20.6864  -12.5954 O   0  0  0  0  0  0
  -20.8705   19.6564  -12.8031 C   0  0  0  0  0  0
  -18.8703   15.8943  -12.9858 N   0  0  0  0  0  0
  -20.2245   15.9240  -13.0599 C   0  0  0  0  0  0
  -20.9020   17.1458  -13.0958 C   0  0  0  0  0  0
  -18.1362   17.0312  -12.9395 C   0  0  0  0  0  0
  -18.7740   18.2699  -12.9341 C   0  0  0  0  0  0
  -20.1805   18.3461  -13.0051 C   0  0  0  0  0  0
  1  2  1  0  0  0
  1 10  1  0  0  0
  2  5  2  0  0  0
  2  6  1  0  0  0
  3  4  1  0  0  0
  3  7  2  0  0  0
  4  6  2  0  0  0
  4  9  1  0  0  0
  5  7  1  0  0  0
  8  9  1  0  0  0
 10 12  1  0  0  0
 11 12  2  0  0  0
 12 18  1  0  0  0
 13 14  2  0  0  0
 13 16  1  0  0  0
 14 15  1  0  0  0
 15 18  2  0  0  0
 16 17  2  0  0  0
 17 18  1  0  0  0
M  END
> <s_m_entry_id>
1004

> <s_m_entry_name>
10-myco-1_55_lig_gen_fit_add_gna.sdf.7

> <s_m_Source_Path>
C:\Users\maila\Downloads\mgr\myco-analysis

> <s_m_Source_File>
myco-10-var1-wzakresie.mae

> <i_m_Source_File_Index>
151

> <s_user_SMILES>
c1cnccc1C(=O)CCc2cc(OC)ccc2

> <minimizedAffinity>
-8.59233

> <minimizedRMSD>
0.91311

> <CNNscore>
0.9779316783

> <CNNaffinity>
6.0444765091

> <CNN_VS>
5.9110851288

> <CNNaffinity_variance>
0.2901887894

$$$$
OP(O)CCC[C@H](C1=O)O[C@H]([C@@H]1O)n(cn2)c(c23)ncnc3N
                    3D
 Schrodinger Suite 2021-1.
 28 30  0  0  1  0            999 V2000
   11.2652   -4.9164    1.5503 C   0  0  2  0  0  0
   11.6370   -4.1709    2.6791 O   0  0  0  0  0  0
   12.6196   -5.1080   -0.4408 C   0  0  1  0  0  0
   11.6041   -4.1729   -0.7301 O   0  0  0  0  0  0
   12.4358   -5.5408    0.9486 C   0  0  0  0  0  0
   13.1514   -6.3482    1.5157 O   0  0  0  0  0  0
   10.7875   -3.9950    0.4241 C   0  0  1  0  0  0
   11.9011   -4.8261    3.3774 H   0  0  0  0  0  0
    5.9000   -3.9986    0.3633 C   0  0  0  0  0  0
    8.2481   -3.9306    0.7182 C   0  0  0  0  0  0
    7.5844   -4.6613   -1.2627 N   0  0  0  0  0  0
    7.1872   -4.1944   -0.0818 C   0  0  0  0  0  0
    8.0941   -3.5513    2.0098 N   0  0  0  0  0  0
    5.7425   -3.6204    1.6559 N   0  0  0  0  0  0
    6.8115   -3.4173    2.4765 C   0  0  0  0  0  0
    9.3841   -4.2065    0.0553 N   0  0  0  0  0  0
    4.7751   -4.1460   -0.4985 N   0  0  0  0  0  0
    8.9352   -4.6346   -1.1499 C   0  0  0  0  0  0
    4.9036   -4.2588   -1.5259 H   0  0  0  0  0  0
    3.8078   -4.0366   -0.1291 H   0  0  0  0  0  0
   12.6196   -6.2825   -1.4439 C   0  0  0  0  0  0
   11.4393   -7.2788   -1.3528 C   0  0  0  0  0  0
   11.6560   -8.5034   -2.2485 C   0  0  0  0  0  0
   11.2720   -8.9865   -4.8998 O   0  0  0  0  0  0
   13.6774   -9.0793   -3.9499 O   0  0  0  0  0  0
   12.3198   -7.9923   -3.9264 P   0  0  0  0  0  0
   11.4547   -9.9257   -4.6409 H   0  0  0  0  0  0
   14.3974   -8.5844   -3.4825 H   0  0  0  0  0  0
  1  2  1  0  0  0
  1  5  1  0  0  0
  1  7  1  0  0  0
  2  8  1  0  0  0
  3  4  1  0  0  0
  3  5  1  0  0  0
  3 21  1  0  0  0
  4  7  1  0  0  0
  5  6  2  0  0  0
  7 16  1  0  0  0
  9 12  2  0  0  0
  9 14  1  0  0  0
  9 17  1  0  0  0
 10 12  1  0  0  0
 10 13  2  0  0  0
 10 16  1  0  0  0
 11 12  1  0  0  0
 11 18  2  0  0  0
 13 15  1  0  0  0
 14 15  2  0  0  0
 16 18  1  0  0  0
 17 19  1  0  0  0
 17 20  1  0  0  0
 21 22  1  0  0  0
 22 23  1  0  0  0
 23 26  1  0  0  0
 24 26  1  0  0  0
 24 27  1  0  0  0
 25 26  1  0  0  0
 25 28  1  0  0  0
M  END
> <s_m_entry_id>
1005

> <s_m_entry_name>
10-myco-1_58_lig_gen_fit_add_gna.sdf.1

> <s_m_Source_Path>
C:\Users\maila\Downloads\mgr\myco-analysis

> <s_m_Source_File>
myco-10-var1-wzakresie.mae

> <i_m_Source_File_Index>
152

> <s_user_SMILES>
OP(O)CCC[C@H](C1=O)O[C@H]([C@@H]1O)n(cn2)c(c23)ncnc3N

> <minimizedAffinity>
-9.53534

> <minimizedRMSD>
0.51392

> <CNNscore>
0.9923837185

> <CNNaffinity>
6.0418019295

> <CNN_VS>
5.9957857132

> <CNNaffinity_variance>
0.1513428688

$$$$
O[C@]12[C@@H](O2)[C@@H]1CC[C@@H]3[C@@H](O)[C@@H](O)[C@@H](O3)n(cn4)c(c45)ncnc5N
                    3D
 Schrodinger Suite 2021-1.
 29 33  0  0  1  0            999 V2000
   12.0262   -4.2330   -0.2096 O   0  0  0  0  0  0
   12.1210   -5.3415    2.6379 O   0  0  0  0  0  0
   11.2102   -5.5507    1.5864 C   0  0  2  0  0  0
   12.5678   -7.4853    1.1184 O   0  0  0  0  0  0
   11.7817   -6.4749    0.5461 C   0  0  2  0  0  0
   12.6229   -5.5161   -0.2914 C   0  0  1  0  0  0
   11.0347   -4.2638    0.8025 C   0  0  2  0  0  0
   11.9652   -6.0632    3.3018 H   0  0  0  0  0  0
   11.9368   -8.1438    1.5104 H   0  0  0  0  0  0
    8.5191   -3.8176    0.7359 C   0  0  0  0  0  0
    6.1987   -3.8152    0.1834 C   0  0  0  0  0  0
    5.1491   -3.8767   -0.7749 N   0  0  0  0  0  0
    5.9274   -3.5334    1.4809 N   0  0  0  0  0  0
    8.2468   -3.5649    2.0391 N   0  0  0  0  0  0
    8.0079   -4.5820   -1.2714 N   0  0  0  0  0  0
    7.5255   -4.0074   -0.1673 C   0  0  0  0  0  0
    6.9297   -3.4280    2.4001 C   0  0  0  0  0  0
    9.6971   -4.1865    0.1914 N   0  0  0  0  0  0
    9.3406   -4.6462   -1.0360 C   0  0  0  0  0  0
    4.1510   -3.8146   -0.4738 H   0  0  0  0  0  0
    5.3807   -3.8018   -1.7857 H   0  0  0  0  0  0
   12.8113   -5.9026   -1.7832 C   0  0  0  0  0  0
   11.9031   -7.0320   -2.3159 C   0  0  0  0  0  0
   12.6411   -7.9651   -3.2992 C   0  0  1  0  0  0
   11.7679   -8.4334   -4.4450 C   0  0  1  0  0  0
   12.5112   -6.1976   -4.9053 O   0  0  0  0  0  0
   12.9494   -7.5026   -4.6992 C   0  0  1  0  0  0
   12.4026   -8.3176   -5.6926 O   0  0  0  0  0  0
   13.3416   -5.6737   -5.0369 H   0  0  0  0  0  0
  1  6  1  0  0  0
  1  7  1  0  0  0
  2  3  1  0  0  0
  2  8  1  0  0  0
  3  5  1  0  0  0
  3  7  1  0  0  0
  4  5  1  0  0  0
  4  9  1  0  0  0
  5  6  1  0  0  0
  6 22  1  0  0  0
  7 18  1  0  0  0
 10 14  2  0  0  0
 10 16  1  0  0  0
 10 18  1  0  0  0
 11 12  1  0  0  0
 11 13  1  0  0  0
 11 16  2  0  0  0
 12 20  1  0  0  0
 12 21  1  0  0  0
 13 17  2  0  0  0
 14 17  1  0  0  0
 15 16  1  0  0  0
 15 19  2  0  0  0
 18 19  1  0  0  0
 22 23  1  0  0  0
 23 24  1  0  0  0
 24 25  1  0  0  0
 24 27  1  0  0  0
 25 27  1  0  0  0
 25 28  1  0  0  0
 26 27  1  0  0  0
 26 29  1  0  0  0
 27 28  1  0  0  0
M  END
> <s_m_entry_id>
1006

> <s_m_entry_name>
10-myco-1_58_lig_gen_fit_add_gna.sdf.2

> <s_m_Source_Path>
C:\Users\maila\Downloads\mgr\myco-analysis

> <s_m_Source_File>
myco-10-var1-wzakresie.mae

> <i_m_Source_File_Index>
153

> <s_user_SMILES>
O[C@]12[C@@H](O2)[C@@H]1CC[C@@H]3[C@@H](O)[C@@H](O)[C@@H](O3)n(cn4)c(c45)ncnc5N

> <minimizedAffinity>
-9.45825

> <minimizedRMSD>
0.76513

> <CNNscore>
0.9938544035

> <CNNaffinity>
6.2614140511

> <CNN_VS>
6.2229337692

> <CNNaffinity_variance>
0.1192537099

$$$$
C1[C@@H](O)[C@@H]1C#CO[C@H](C[C@@H](O)[C@H]2O)O[C@H]2n(cn3)c(c34)ncnc4N
                    3D
 Schrodinger Suite 2021-1.
 30 33  0  0  1  0            999 V2000
   12.0402   -3.9585    2.5285 O   0  0  0  0  0  0
   12.1214   -6.5767    3.0874 O   0  0  0  0  0  0
   11.1568   -4.7831    1.8139 C   0  0  2  0  0  0
   11.8769   -4.5647   -0.6248 O   0  0  0  0  0  0
   11.6976   -6.2103    1.7990 C   0  0  1  0  0  0
   12.8505   -6.3015    0.8152 C   0  0  0  0  0  0
   10.9427   -4.1838    0.3852 C   0  0  1  0  0  0
   12.3409   -5.9048   -0.5689 C   0  0  1  0  0  0
   11.7638   -3.9805    3.4819 H   0  0  0  0  0  0
   11.9667   -7.5533    3.1785 H   0  0  0  0  0  0
    8.4545   -3.8881    0.6098 C   0  0  0  0  0  0
    6.0242   -3.5850    1.7473 N   0  0  0  0  0  0
    7.3450   -4.1557   -0.1170 C   0  0  0  0  0  0
    4.8943   -4.3143   -0.2582 N   0  0  0  0  0  0
    6.0868   -3.9991    0.4508 C   0  0  0  0  0  0
    7.6824   -4.6913   -1.3018 N   0  0  0  0  0  0
    8.3919   -3.4933    1.9038 N   0  0  0  0  0  0
    7.1597   -3.3428    2.4699 C   0  0  0  0  0  0
    9.5496   -4.2630   -0.0740 N   0  0  0  0  0  0
    9.0464   -4.7060   -1.2563 C   0  0  0  0  0  0
    3.9738   -3.9954    0.1127 H   0  0  0  0  0  0
    4.9214   -4.9240   -1.1023 H   0  0  0  0  0  0
   11.3253   -6.8110   -0.9951 O   0  0  0  0  0  0
   11.4614   -7.5656   -2.1280 C   0  0  0  0  0  0
   11.5833   -8.2248   -3.1286 C   0  0  0  0  0  0
   11.7361   -9.0142   -4.3547 C   0  0  2  0  0  0
   13.1778   -9.1844   -4.8141 C   0  0  0  0  0  0
   11.8380   -8.6716   -6.7699 O   0  0  0  0  0  0
   12.2628   -8.2022   -5.5236 C   0  0  1  0  0  0
   11.0178   -8.1545   -6.9759 H   0  0  0  0  0  0
  1  3  1  0  0  0
  1  9  1  0  0  0
  2  5  1  0  0  0
  2 10  1  0  0  0
  3  5  1  0  0  0
  3  7  1  0  0  0
  4  7  1  0  0  0
  4  8  1  0  0  0
  5  6  1  0  0  0
  6  8  1  0  0  0
  7 19  1  0  0  0
  8 23  1  0  0  0
 11 13  2  0  0  0
 11 17  1  0  0  0
 11 19  1  0  0  0
 12 15  2  0  0  0
 12 18  1  0  0  0
 13 15  1  0  0  0
 13 16  1  0  0  0
 14 15  1  0  0  0
 14 21  1  0  0  0
 14 22  1  0  0  0
 16 20  2  0  0  0
 17 18  2  0  0  0
 19 20  1  0  0  0
 23 24  1  0  0  0
 24 25  3  0  0  0
 25 26  1  0  0  0
 26 27  1  0  0  0
 26 29  1  0  0  0
 27 29  1  0  0  0
 28 29  1  0  0  0
 28 30  1  0  0  0
M  END
> <s_m_entry_id>
1007

> <s_m_entry_name>
10-myco-1_58_lig_gen_fit_add_gna.sdf.6

> <s_m_Source_Path>
C:\Users\maila\Downloads\mgr\myco-analysis

> <s_m_Source_File>
myco-10-var1-wzakresie.mae

> <i_m_Source_File_Index>
154

> <s_user_SMILES>
C1[C@@H](O)[C@@H]1C#CO[C@H](C[C@@H](O)[C@H]2O)O[C@H]2n(cn3)c(c34)ncnc4N

> <minimizedAffinity>
-10.27384

> <minimizedRMSD>
0.61562

> <CNNscore>
0.9916505814

> <CNNaffinity>
6.2270917892

> <CNN_VS>
6.1750993729

> <CNNaffinity_variance>
0.1642915905

$$$$
O=C(O)/C=C/C[C@@H]1[C@@H](O)[C@@H](O)[C@@H](O1)n(cn2)c(c23)ncnc3N
                    3D
 Schrodinger Suite 2021-1.
 28 30  0  0  1  0            999 V2000
   11.8673   -4.2020    2.5924 O   0  0  0  0  0  0
   12.4086   -5.5612   -0.0151 C   0  0  1  0  0  0
   11.7554   -4.4217   -0.5285 O   0  0  0  0  0  0
   12.3950   -6.7623    2.0775 O   0  0  0  0  0  0
   10.8294   -3.9829    0.4442 C   0  0  2  0  0  0
   11.5853   -6.0977    1.1448 C   0  0  1  0  0  0
   10.9812   -4.8351    1.7015 C   0  0  1  0  0  0
   11.7058   -4.5974    3.4888 H   0  0  0  0  0  0
   11.7783   -7.2073    2.7155 H   0  0  0  0  0  0
    8.3266   -3.8138    0.5662 C   0  0  0  0  0  0
    7.2706   -4.2307   -0.1754 C   0  0  0  0  0  0
    5.8642   -3.8439    1.6737 N   0  0  0  0  0  0
    8.2013   -3.4539    1.8635 N   0  0  0  0  0  0
    6.9523   -3.4587    2.4108 C   0  0  0  0  0  0
    4.8653   -4.7265   -0.3464 N   0  0  0  0  0  0
    9.4669   -4.0644   -0.0896 N   0  0  0  0  0  0
    7.6982   -4.7908   -1.3208 N   0  0  0  0  0  0
    9.0529   -4.6550   -1.2402 C   0  0  0  0  0  0
    5.9954   -4.2455    0.3773 C   0  0  0  0  0  0
    3.9063   -4.6157    0.0479 H   0  0  0  0  0  0
    4.9826   -5.2232   -1.2549 H   0  0  0  0  0  0
   12.5983   -6.6151   -1.1179 C   0  0  0  0  0  0
   13.1024   -6.7149   -3.5118 C   0  0  0  0  0  0
   13.0891   -5.9934   -2.3920 C   0  0  0  0  0  0
   13.6195   -6.2579   -4.8136 C   0  0  0  0  0  0
   13.5041   -7.0257   -5.8032 O   0  0  0  0  0  0
   14.2299   -5.0165   -4.9961 O   0  0  0  0  0  0
   14.3576   -4.3453   -4.2519 H   0  0  0  0  0  0
  1  7  1  0  0  0
  1  8  1  0  0  0
  2  3  1  0  0  0
  2 22  1  0  0  0
  2  6  1  0  0  0
  3  5  1  0  0  0
  4  6  1  0  0  0
  4  9  1  0  0  0
  5 16  1  0  0  0
  5  7  1  0  0  0
  6  7  1  0  0  0
 10 11  2  0  0  0
 10 13  1  0  0  0
 10 16  1  0  0  0
 11 17  1  0  0  0
 11 19  1  0  0  0
 12 14  1  0  0  0
 12 19  2  0  0  0
 13 14  2  0  0  0
 15 19  1  0  0  0
 15 20  1  0  0  0
 15 21  1  0  0  0
 16 18  1  0  0  0
 17 18  2  0  0  0
 22 24  1  0  0  0
 23 25  1  0  0  0
 23 24  2  0  0  0
 25 26  2  0  0  0
 25 27  1  0  0  0
 27 28  1  0  0  0
M  END
> <s_m_entry_id>
1008

> <s_m_entry_name>
10-myco-1_58_lig_gen_fit_add_gna.sdf.9

> <s_m_Source_Path>
C:\Users\maila\Downloads\mgr\myco-analysis

> <s_m_Source_File>
myco-10-var1-wzakresie.mae

> <i_m_Source_File_Index>
155

> <s_user_SMILES>
O=C(O)/C=C/C[C@@H]1[C@@H](O)[C@@H](O)[C@@H](O1)n(cn2)c(c23)ncnc3N

> <minimizedAffinity>
-9.38572

> <minimizedRMSD>
1.28241

> <CNNscore>
0.9836053252

> <CNNaffinity>
6.0101447105

> <CNN_VS>
5.9116101265

> <CNNaffinity_variance>
0.1295064986

$$$$
Nc1ncnc(c12)n(cn2)C(=O)[C@H](O)[C@H](O)CCN3[C@H]([C@H]34)C[C@@]4(C)O
                    3D
 Schrodinger Suite 2021-1.
 30 33  0  0  1  0            999 V2000
  -23.6273  -19.3906   11.4498 C   0  0  1  0  0  0
  -24.9262  -19.5562   11.9501 O   0  0  0  0  0  0
  -25.2385  -18.6614   12.2401 H   0  0  0  0  0  0
  -18.8147  -17.0800   12.6436 C   0  0  0  0  0  0
  -21.5864  -17.1147   12.7883 N   0  0  0  0  0  0
  -19.5198  -18.2590   12.5692 C   0  0  0  0  0  0
  -19.5276  -15.9382   12.7759 N   0  0  0  0  0  0
  -20.8855  -15.9406   12.8394 C   0  0  0  0  0  0
  -20.8687  -18.2578   12.6679 C   0  0  0  0  0  0
  -17.3982  -17.0381   12.5544 N   0  0  0  0  0  0
  -19.0618  -19.4883   12.3211 N   0  0  0  0  0  0
  -22.9335  -21.0909   12.9617 O   0  0  0  0  0  0
  -20.1927  -20.2381   12.3218 C   0  0  0  0  0  0
  -21.3166  -19.5106   12.5179 N   0  0  0  0  0  0
  -22.6444  -20.0098   12.3956 C   0  0  0  0  0  0
  -16.8824  -16.1858   12.8506 H   0  0  0  0  0  0
  -16.8762  -17.8274   12.1303 H   0  0  0  0  0  0
  -24.2030  -19.1859    9.1097 O   0  0  0  0  0  0
  -23.5226  -20.0020   10.0309 C   0  0  2  0  0  0
  -25.1726  -19.2489    9.3108 H   0  0  0  0  0  0
  -24.0081  -21.4717    9.9176 C   0  0  0  0  0  0
  -22.8710  -22.5125    9.7380 C   0  0  0  0  0  0
  -21.7996  -21.6122    6.1712 C   0  0  0  0  0  0
  -19.8080  -22.9228    6.6100 O   0  0  0  0  0  0
  -21.1794  -22.9850    6.3223 C   0  0  2  0  0  0
  -21.4961  -23.9475    5.1707 C   0  0  0  0  0  0
  -22.0359  -23.2275    7.5599 C   0  0  1  0  0  0
  -21.9428  -22.1982    8.6270 N   0  0  1  0  0  0
  -22.6700  -21.8959    7.3841 C   0  0  1  0  0  0
  -19.5523  -23.8094    6.9762 H   0  0  0  0  0  0
  1  2  1  0  0  0
  1 19  1  0  0  0
  1 15  1  0  0  0
  2  3  1  0  0  0
  4  6  2  0  0  0
  4  7  1  0  0  0
  4 10  1  0  0  0
  5  8  1  0  0  0
  5  9  2  0  0  0
  6  9  1  0  0  0
  6 11  1  0  0  0
  7  8  2  0  0  0
  9 14  1  0  0  0
 10 16  1  0  0  0
 10 17  1  0  0  0
 11 13  2  0  0  0
 12 15  2  0  0  0
 13 14  1  0  0  0
 14 15  1  0  0  0
 18 19  1  0  0  0
 18 20  1  0  0  0
 19 21  1  0  0  0
 21 22  1  0  0  0
 22 28  1  0  0  0
 23 25  1  0  0  0
 23 29  1  0  0  0
 24 25  1  0  0  0
 24 30  1  0  0  0
 25 26  1  0  0  0
 25 27  1  0  0  0
 27 28  1  0  0  0
 27 29  1  0  0  0
 28 29  1  0  0  0
M  END
> <s_m_entry_id>
1009

> <s_m_entry_name>
10-myco-1_59_lig_gen_fit_add_gna.sdf.1

> <s_m_Source_Path>
C:\Users\maila\Downloads\mgr\myco-analysis

> <s_m_Source_File>
myco-10-var1-wzakresie.mae

> <i_m_Source_File_Index>
156

> <s_user_SMILES>
Nc1ncnc(c12)n(cn2)C(=O)[C@H](O)[C@H](O)CCN3[C@H]([C@H]34)C[C@@]4(C)O

> <minimizedAffinity>
-9.71215

> <minimizedRMSD>
0.71691

> <CNNscore>
0.9738633037

> <CNNaffinity>
6.1396141052

> <CNN_VS>
5.97914505

> <CNNaffinity_variance>
0.3199741244

$$$$
O[C@@H](O1)[C@H]1CCC[C@@H]2[C@@H](O)[C@@H](O)[C@@H](O2)n(cn3)c(c34)ncnc4N
                    3D
 Schrodinger Suite 2021-1.
 29 32  0  0  1  0            999 V2000
  -24.7443  -18.7250   11.8622 O   0  0  0  0  0  0
  -23.4863  -19.2297   11.4875 C   0  0  2  0  0  0
  -22.8001  -21.1964   12.6953 O   0  0  0  0  0  0
  -24.7243  -20.3958    9.7483 O   0  0  0  0  0  0
  -23.5891  -20.4255   10.5798 C   0  0  2  0  0  0
  -23.5740  -21.5831   11.5797 C   0  0  1  0  0  0
  -22.7090  -19.7806   12.6822 C   0  0  1  0  0  0
  -25.2202  -19.4371   12.3556 H   0  0  0  0  0  0
  -25.5256  -20.6053   10.2917 H   0  0  0  0  0  0
  -20.8049  -18.1239   12.7189 C   0  0  0  0  0  0
  -19.4610  -18.1800   12.5873 C   0  0  0  0  0  0
  -20.7377  -15.8028   12.7530 C   0  0  0  0  0  0
  -21.4793  -16.9507   12.7896 N   0  0  0  0  0  0
  -19.0524  -19.4403   12.4360 N   0  0  0  0  0  0
  -19.3826  -15.8531   12.6562 N   0  0  0  0  0  0
  -17.2984  -17.0370   12.4462 N   0  0  0  0  0  0
  -18.7131  -17.0250   12.5696 C   0  0  0  0  0  0
  -21.3088  -19.3636   12.6555 N   0  0  0  0  0  0
  -20.2102  -20.1430   12.5098 C   0  0  0  0  0  0
  -16.7510  -16.1880   12.6920 H   0  0  0  0  0  0
  -16.8099  -17.8571   12.0381 H   0  0  0  0  0  0
  -23.0764  -22.9017   10.9618 C   0  0  0  0  0  0
  -21.7067  -22.8145   10.2683 C   0  0  0  0  0  0
  -21.5061  -23.9053    9.2042 C   0  0  0  0  0  0
  -21.6525  -25.9904   10.4849 O   0  0  0  0  0  0
  -21.2132  -26.4418    9.2243 C   0  0  2  0  0  0
  -20.2684  -27.4607    9.3600 O   0  0  0  0  0  0
  -20.7870  -25.1363    9.7735 C   0  0  1  0  0  0
  -20.7956  -28.2955    9.4501 H   0  0  0  0  0  0
  1  2  1  0  0  0
  1  8  1  0  0  0
  2  5  1  0  0  0
  2  7  1  0  0  0
  3  6  1  0  0  0
  3  7  1  0  0  0
  4  5  1  0  0  0
  4  9  1  0  0  0
  5  6  1  0  0  0
  6 22  1  0  0  0
  7 18  1  0  0  0
 10 11  2  0  0  0
 10 13  1  0  0  0
 10 18  1  0  0  0
 11 14  1  0  0  0
 11 17  1  0  0  0
 12 13  2  0  0  0
 12 15  1  0  0  0
 14 19  2  0  0  0
 15 17  2  0  0  0
 16 17  1  0  0  0
 16 20  1  0  0  0
 16 21  1  0  0  0
 18 19  1  0  0  0
 22 23  1  0  0  0
 23 24  1  0  0  0
 24 28  1  0  0  0
 25 26  1  0  0  0
 25 28  1  0  0  0
 26 27  1  0  0  0
 26 28  1  0  0  0
 27 29  1  0  0  0
M  END
> <s_m_entry_id>
1010

> <s_m_entry_name>
10-myco-1_59_lig_gen_fit_add_gna.sdf.2

> <s_m_Source_Path>
C:\Users\maila\Downloads\mgr\myco-analysis

> <s_m_Source_File>
myco-10-var1-wzakresie.mae

> <i_m_Source_File_Index>
157

> <s_user_SMILES>
O[C@@H](O1)[C@H]1CCC[C@@H]2[C@@H](O)[C@@H](O)[C@@H](O2)n(cn3)c(c34)ncnc4N

> <minimizedAffinity>
-9.77683

> <minimizedRMSD>
0.46773

> <CNNscore>
0.9835589528

> <CNNaffinity>
6.3397283554

> <CNN_VS>
6.235496521

> <CNNaffinity_variance>
0.0843124539

$$$$
O[C@@H](O1)[C@]12[C@@H]3[C@H](O2)[C@H]3OC[C@@H]4[C@@H](O)[C@@H](O)[C@@H](O4)n(cn5)c(c56)ncnc6N
                    3D
 Schrodinger Suite 2021-1.
 32 37  0  0  1  0            999 V2000
  -24.8035  -18.6172   11.8814 O   0  0  0  0  0  0
  -23.5442  -19.1215   11.5109 C   0  0  2  0  0  0
  -23.6470  -20.2963   10.5796 C   0  0  2  0  0  0
  -24.7499  -20.2207    9.7097 O   0  0  0  0  0  0
  -22.9477  -21.1201   12.7063 O   0  0  0  0  0  0
  -22.7902  -19.7127   12.6992 C   0  0  1  0  0  0
  -23.6961  -21.4680   11.5614 C   0  0  2  0  0  0
  -25.2896  -19.3334   12.3593 H   0  0  0  0  0  0
  -25.5700  -20.4373   10.2195 H   0  0  0  0  0  0
  -20.8314  -18.1361   12.7428 C   0  0  0  0  0  0
  -18.7211  -17.0806   12.5324 C   0  0  0  0  0  0
  -19.1287  -19.5035   12.4046 N   0  0  0  0  0  0
  -19.4933  -18.2273   12.5812 C   0  0  0  0  0  0
  -17.3120  -17.1122   12.3599 N   0  0  0  0  0  0
  -20.7163  -15.8134   12.7477 C   0  0  0  0  0  0
  -19.3643  -15.8920   12.6216 N   0  0  0  0  0  0
  -20.3058  -20.1781   12.5034 C   0  0  0  0  0  0
  -21.3733  -19.3594   12.6759 N   0  0  0  0  0  0
  -21.4766  -16.9461   12.8134 N   0  0  0  0  0  0
  -16.7499  -16.2529   12.5317 H   0  0  0  0  0  0
  -16.8509  -17.9438   11.9483 H   0  0  0  0  0  0
  -23.1717  -22.7593   10.9420 C   0  0  0  0  0  0
  -21.8016  -22.6427   10.6262 O   0  0  0  0  0  0
  -20.1351  -23.8394    7.5386 C   0  0  2  0  0  0
  -20.1933  -23.2891    8.9178 C   0  0  1  0  0  0
  -21.6400  -22.9567    9.2636 C   0  0  1  0  0  0
  -18.5503  -22.4737    6.3383 O   0  0  0  0  0  0
  -18.8983  -24.5094    7.3676 O   0  0  0  0  0  0
  -19.2944  -23.6551    6.3335 C   0  0  1  0  0  0
  -21.1440  -24.7812    7.6678 O   0  0  0  0  0  0
  -21.2984  -24.3834    9.0196 C   0  0  1  0  0  0
  -17.7368  -22.6757    5.8088 H   0  0  0  0  0  0
  1  2  1  0  0  0
  1  8  1  0  0  0
  2  3  1  0  0  0
  2  6  1  0  0  0
  3  4  1  0  0  0
  3  7  1  0  0  0
  4  9  1  0  0  0
  5  6  1  0  0  0
  5  7  1  0  0  0
  6 18  1  0  0  0
  7 22  1  0  0  0
 10 13  2  0  0  0
 10 18  1  0  0  0
 10 19  1  0  0  0
 11 13  1  0  0  0
 11 14  1  0  0  0
 11 16  2  0  0  0
 12 13  1  0  0  0
 12 17  2  0  0  0
 14 20  1  0  0  0
 14 21  1  0  0  0
 15 16  1  0  0  0
 15 19  2  0  0  0
 17 18  1  0  0  0
 22 23  1  0  0  0
 23 26  1  0  0  0
 24 25  1  0  0  0
 24 28  1  0  0  0
 24 29  1  0  0  0
 24 30  1  0  0  0
 25 26  1  0  0  0
 25 31  1  0  0  0
 26 31  1  0  0  0
 27 29  1  0  0  0
 27 32  1  0  0  0
 28 29  1  0  0  0
 30 31  1  0  0  0
M  END
> <s_m_entry_id>
1011

> <s_m_entry_name>
10-myco-1_59_lig_gen_fit_add_gna.sdf.3

> <s_m_Source_Path>
C:\Users\maila\Downloads\mgr\myco-analysis

> <s_m_Source_File>
myco-10-var1-wzakresie.mae

> <i_m_Source_File_Index>
158

> <s_user_SMILES>
O[C@@H](O1)[C@]12[C@@H]3[C@H](O2)[C@H]3OC[C@@H]4[C@@H](O)[C@@H](O)[C@@H](O4)n(cn5)c(c56)ncnc6N

> <minimizedAffinity>
-10.47411

> <minimizedRMSD>
0.82506

> <CNNscore>
0.982657671

> <CNNaffinity>
6.0142669678

> <CNN_VS>
5.9099655151

> <CNNaffinity_variance>
0.1625419557

$$$$
C1=C[C@@H](C(=O)O)[C@@H]([C@@H]12)N2C[C@@H]3[C@@H](O)[C@@H](O)[C@@H](O3)n(cn4)c(c45)ncnc5N
                    3D
 Schrodinger Suite 2021-1.
 32 36  0  0  1  0            999 V2000
  -23.1382  -21.0872   12.6788 O   0  0  0  0  0  0
  -23.4378  -21.6995   11.4401 C   0  0  1  0  0  0
  -24.1161  -20.8190    9.2742 O   0  0  0  0  0  0
  -23.3718  -19.3668   11.0386 C   0  0  1  0  0  0
  -23.1907  -20.6815   10.3213 C   0  0  1  0  0  0
  -24.7122  -18.9290   11.0190 O   0  0  0  0  0  0
  -22.9219  -19.7098   12.4568 C   0  0  2  0  0  0
  -23.7228  -21.4591    8.6269 H   0  0  0  0  0  0
  -25.2746  -19.6236   11.4515 H   0  0  0  0  0  0
  -20.9361  -18.1882   12.7615 C   0  0  0  0  0  0
  -19.5896  -18.2934   12.6510 C   0  0  0  0  0  0
  -21.5647  -16.9956   12.7556 N   0  0  0  0  0  0
  -20.4377  -20.2165   12.4466 C   0  0  0  0  0  0
  -17.3801  -17.2262   12.4403 N   0  0  0  0  0  0
  -20.7926  -15.8747   12.6923 C   0  0  0  0  0  0
  -19.4290  -15.9522   12.6121 N   0  0  0  0  0  0
  -18.7975  -17.1561   12.5807 C   0  0  0  0  0  0
  -21.5006  -19.3969   12.6475 N   0  0  0  0  0  0
  -19.2470  -19.5647   12.4138 N   0  0  0  0  0  0
  -16.8067  -16.3559   12.4111 H   0  0  0  0  0  0
  -16.8969  -18.1443   12.3632 H   0  0  0  0  0  0
  -22.6344  -23.0140   11.3197 C   0  0  0  0  0  0
  -21.3216  -24.4703    9.8980 C   0  0  2  0  0  0
  -21.2909  -25.1988    8.5539 C   0  0  1  0  0  0
  -20.7273  -24.1884    7.6127 C   0  0  0  0  0  0
  -20.4771  -23.0462    8.2311 C   0  0  0  0  0  0
  -22.2651  -23.3232    9.9273 N   0  0  2  0  0  0
  -20.8170  -23.1157    9.6770 C   0  0  1  0  0  0
  -20.4143  -26.4183    8.6102 C   0  0  0  0  0  0
  -19.3516  -26.4062    9.2879 O   0  0  0  0  0  0
  -20.7514  -27.5636    7.8944 O   0  0  0  0  0  0
  -21.5902  -27.6034    7.3279 H   0  0  0  0  0  0
  1  2  1  0  0  0
  1  7  1  0  0  0
  2  5  1  0  0  0
  2 22  1  0  0  0
  3  5  1  0  0  0
  3  8  1  0  0  0
  4  5  1  0  0  0
  4  6  1  0  0  0
  4  7  1  0  0  0
  6  9  1  0  0  0
  7 18  1  0  0  0
 10 11  2  0  0  0
 10 12  1  0  0  0
 10 18  1  0  0  0
 11 17  1  0  0  0
 11 19  1  0  0  0
 12 15  2  0  0  0
 13 18  1  0  0  0
 13 19  2  0  0  0
 14 17  1  0  0  0
 14 20  1  0  0  0
 14 21  1  0  0  0
 15 16  1  0  0  0
 16 17  2  0  0  0
 22 27  1  0  0  0
 23 24  1  0  0  0
 23 27  1  0  0  0
 23 28  1  0  0  0
 24 25  1  0  0  0
 24 29  1  0  0  0
 25 26  2  0  0  0
 26 28  1  0  0  0
 27 28  1  0  0  0
 29 30  2  0  0  0
 29 31  1  0  0  0
 31 32  1  0  0  0
M  END
> <s_m_entry_id>
1012

> <s_m_entry_name>
10-myco-1_59_lig_gen_fit_add_gna.sdf.4

> <s_m_Source_Path>
C:\Users\maila\Downloads\mgr\myco-analysis

> <s_m_Source_File>
myco-10-var1-wzakresie.mae

> <i_m_Source_File_Index>
159

> <s_user_SMILES>
C1=C[C@@H](C(=O)O)[C@@H]([C@@H]12)N2C[C@@H]3[C@@H](O)[C@@H](O)[C@@H](O3)n(cn4)c(c45)ncnc5N

> <minimizedAffinity>
-10.25718

> <minimizedRMSD>
1.3841

> <CNNscore>
0.9741693139

> <CNNaffinity>
6.4223909378

> <CNN_VS>
6.2564959526

> <CNNaffinity_variance>
0.1724234074

$$$$
OCCCCCC[C@@H]1[C@@H](O)[C@@H](O)[C@@H](O1)n(cn2)c(c23)ncnc3N
                    3D
 Schrodinger Suite 2021-1.
 29 31  0  0  1  0            999 V2000
  -24.7565  -18.7132   11.8587 O   0  0  0  0  0  0
  -24.8138  -20.4221    9.8010 O   0  0  0  0  0  0
  -23.5700  -21.6036   11.5783 C   0  0  1  0  0  0
  -23.5097  -19.2371   11.4777 C   0  0  2  0  0  0
  -22.8156  -21.1960   12.6988 O   0  0  0  0  0  0
  -23.6425  -20.4405   10.5808 C   0  0  2  0  0  0
  -22.7288  -19.7816   12.6767 C   0  0  1  0  0  0
  -25.2345  -19.4190   12.3589 H   0  0  0  0  0  0
  -25.5832  -20.6713   10.3718 H   0  0  0  0  0  0
  -20.8146  -18.1264   12.7227 C   0  0  0  0  0  0
  -19.4712  -18.1897   12.5853 C   0  0  0  0  0  0
  -17.3033  -17.0519   12.4111 N   0  0  0  0  0  0
  -20.7335  -15.8038   12.7502 C   0  0  0  0  0  0
  -20.2337  -20.1533   12.5185 C   0  0  0  0  0  0
  -21.4803  -16.9484   12.7936 N   0  0  0  0  0  0
  -19.3782  -15.8580   12.6453 N   0  0  0  0  0  0
  -19.0728  -19.4546   12.4338 N   0  0  0  0  0  0
  -21.3275  -19.3644   12.6564 N   0  0  0  0  0  0
  -18.7163  -17.0352   12.5567 C   0  0  0  0  0  0
  -16.7507  -16.1972   12.6258 H   0  0  0  0  0  0
  -16.8251  -17.8739   11.9951 H   0  0  0  0  0  0
  -22.9974  -22.8917   10.9577 C   0  0  0  0  0  0
  -21.6663  -22.7066   10.2010 C   0  0  0  0  0  0
  -21.7396  -23.1426    8.7257 C   0  0  0  0  0  0
  -20.7181  -24.2256    8.3438 C   0  0  0  0  0  0
  -20.6044  -25.3306    9.4041 C   0  0  0  0  0  0
  -20.7782  -27.2269    7.9101 O   0  0  0  0  0  0
  -21.3877  -26.5833    8.9969 C   0  0  0  0  0  0
  -19.9667  -27.6761    8.2642 H   0  0  0  0  0  0
  1  4  1  0  0  0
  1  8  1  0  0  0
  2  6  1  0  0  0
  2  9  1  0  0  0
  3  5  1  0  0  0
  3  6  1  0  0  0
  3 22  1  0  0  0
  4  6  1  0  0  0
  4  7  1  0  0  0
  5  7  1  0  0  0
  7 18  1  0  0  0
 10 11  2  0  0  0
 10 15  1  0  0  0
 10 18  1  0  0  0
 11 17  1  0  0  0
 11 19  1  0  0  0
 12 19  1  0  0  0
 12 20  1  0  0  0
 12 21  1  0  0  0
 13 15  2  0  0  0
 13 16  1  0  0  0
 14 17  2  0  0  0
 14 18  1  0  0  0
 16 19  2  0  0  0
 22 23  1  0  0  0
 23 24  1  0  0  0
 24 25  1  0  0  0
 25 26  1  0  0  0
 26 28  1  0  0  0
 27 28  1  0  0  0
 27 29  1  0  0  0
M  END
> <s_m_entry_id>
1013

> <s_m_entry_name>
10-myco-1_59_lig_gen_fit_add_gna.sdf.6

> <s_m_Source_Path>
C:\Users\maila\Downloads\mgr\myco-analysis

> <s_m_Source_File>
myco-10-var1-wzakresie.mae

> <i_m_Source_File_Index>
160

> <s_user_SMILES>
OCCCCCC[C@@H]1[C@@H](O)[C@@H](O)[C@@H](O1)n(cn2)c(c23)ncnc3N

> <minimizedAffinity>
-9.14722

> <minimizedRMSD>
0.65238

> <CNNscore>
0.9865995646

> <CNNaffinity>
6.5206689835

> <CNN_VS>
6.4332890511

> <CNNaffinity_variance>
0.0565539189

$$$$
OC[C@H](C1)CN([C@H]12)[C@@H]2C[C@H]3[C@@H](O)[C@@H](O)[C@@H](O3)n(cn4)c(c45)ncnc5N
                    3D
 Schrodinger Suite 2021-1.
 31 35  0  0  1  0            999 V2000
  -22.6825  -21.2879   11.7842 O   0  0  0  0  0  0
  -23.5614  -19.1078   11.4329 C   0  0  2  0  0  0
  -24.7307  -18.6140   12.0338 O   0  0  0  0  0  0
  -25.1163  -20.5716   10.2785 O   0  0  0  0  0  0
  -23.8382  -19.9905   10.2195 C   0  0  2  0  0  0
  -22.7323  -20.0075   12.3734 C   0  0  2  0  0  0
  -22.7704  -21.0538   10.3994 C   0  0  2  0  0  0
  -25.2135  -19.3863   12.4182 H   0  0  0  0  0  0
  -25.7452  -19.8957    9.9174 H   0  0  0  0  0  0
  -20.9055  -18.2566   12.7141 C   0  0  0  0  0  0
  -19.0977  -19.4986   12.4676 N   0  0  0  0  0  0
  -21.6152  -17.1052   12.7203 N   0  0  0  0  0  0
  -17.4182  -17.0486   12.6118 N   0  0  0  0  0  0
  -19.5468  -15.9253   12.7193 N   0  0  0  0  0  0
  -19.5524  -18.2619   12.6637 C   0  0  0  0  0  0
  -20.9098  -15.9332   12.7253 C   0  0  0  0  0  0
  -20.2287  -20.2437   12.4306 C   0  0  0  0  0  0
  -21.3633  -19.5106   12.5568 N   0  0  0  0  0  0
  -18.8385  -17.0792   12.6812 C   0  0  0  0  0  0
  -16.9062  -16.1703   12.8314 H   0  0  0  0  0  0
  -16.8839  -17.8721   12.2711 H   0  0  0  0  0  0
  -23.0016  -22.3615    9.6421 C   0  0  0  0  0  0
  -20.5310  -22.6339    6.6281 C   0  0  0  0  0  0
  -21.8333  -22.6840    7.4157 C   0  0  2  0  0  0
  -21.7343  -22.7838    8.8770 C   0  0  2  0  0  0
  -20.6995  -24.7212    7.7855 C   0  0  0  0  0  0
  -20.0846  -24.0789    6.5490 C   0  0  2  0  0  0
  -21.9515  -24.0095    8.0749 N   0  0  2  0  0  0
  -17.9125  -23.6691    7.5397 O   0  0  0  0  0  0
  -18.5628  -24.2547    6.4460 C   0  0  0  0  0  0
  -16.9461  -23.8538    7.4129 H   0  0  0  0  0  0
  1  6  1  0  0  0
  1  7  1  0  0  0
  2  3  1  0  0  0
  2  5  1  0  0  0
  2  6  1  0  0  0
  3  8  1  0  0  0
  4  5  1  0  0  0
  4  9  1  0  0  0
  5  7  1  0  0  0
  6 18  1  0  0  0
  7 22  1  0  0  0
 10 12  2  0  0  0
 10 15  1  0  0  0
 10 18  1  0  0  0
 11 15  1  0  0  0
 11 17  2  0  0  0
 12 16  1  0  0  0
 13 19  1  0  0  0
 13 20  1  0  0  0
 13 21  1  0  0  0
 14 16  2  0  0  0
 14 19  1  0  0  0
 15 19  2  0  0  0
 17 18  1  0  0  0
 22 25  1  0  0  0
 23 24  1  0  0  0
 23 27  1  0  0  0
 24 25  1  0  0  0
 24 28  1  0  0  0
 25 28  1  0  0  0
 26 27  1  0  0  0
 26 28  1  0  0  0
 27 30  1  0  0  0
 29 30  1  0  0  0
 29 31  1  0  0  0
M  END
> <s_m_entry_id>
1014

> <s_m_entry_name>
10-myco-1_59_lig_gen_fit_add_gna.sdf.7

> <s_m_Source_Path>
C:\Users\maila\Downloads\mgr\myco-analysis

> <s_m_Source_File>
myco-10-var1-wzakresie.mae

> <i_m_Source_File_Index>
161

> <s_user_SMILES>
OC[C@H](C1)CN([C@H]12)[C@@H]2C[C@H]3[C@@H](O)[C@@H](O)[C@@H](O3)n(cn4)c(c45)ncnc5N

> <minimizedAffinity>
-9.91086

> <minimizedRMSD>
0.62217

> <CNNscore>
0.9716510773

> <CNNaffinity>
6.4545516968

> <CNN_VS>
6.271572113

> <CNNaffinity_variance>
0.1540227234

$$$$
O[C@@H]1[C@@H]([C@@H]12)C[C@H]2C[C@@H]3[C@@H](O)[C@@H](O)[C@@H](O3)n(cn4)c(c45)ncnc5N
                    3D
 Schrodinger Suite 2021-1.
 29 33  0  0  1  0            999 V2000
  -24.9249  -18.9396   11.7941 O   0  0  0  0  0  0
  -22.9115  -21.1492   12.6765 O   0  0  0  0  0  0
  -23.5660  -20.4276   10.4961 C   0  0  1  0  0  0
  -22.8142  -19.7408   12.6167 C   0  0  2  0  0  0
  -24.6534  -20.4829    9.6030 O   0  0  0  0  0  0
  -23.6055  -19.2382   11.4150 C   0  0  2  0  0  0
  -23.5226  -21.5944   11.4859 C   0  0  1  0  0  0
  -24.9021  -18.0391   12.2111 H   0  0  0  0  0  0
  -25.4820  -20.6676   10.1162 H   0  0  0  0  0  0
  -18.7080  -17.1376   12.6232 C   0  0  0  0  0  0
  -20.8543  -18.1384   12.6595 C   0  0  0  0  0  0
  -17.2912  -17.2199   12.5728 N   0  0  0  0  0  0
  -19.1489  -19.5293   12.4255 N   0  0  0  0  0  0
  -19.3242  -15.9360   12.6920 N   0  0  0  0  0  0
  -21.4759  -16.9359   12.7174 N   0  0  0  0  0  0
  -20.6785  -15.8229   12.7286 C   0  0  0  0  0  0
  -21.4071  -19.3549   12.5631 N   0  0  0  0  0  0
  -20.3383  -20.1800   12.4448 C   0  0  0  0  0  0
  -19.5089  -18.2547   12.5823 C   0  0  0  0  0  0
  -16.7109  -16.4015   12.8444 H   0  0  0  0  0  0
  -16.8279  -18.0748   12.2117 H   0  0  0  0  0  0
  -22.8507  -22.8950   10.9859 C   0  0  0  0  0  0
  -21.0207  -24.0935    9.6771 C   0  0  2  0  0  0
  -21.7215  -22.7598    9.9359 C   0  0  1  0  0  0
  -19.3013  -23.0003    8.3257 O   0  0  0  0  0  0
  -20.0319  -24.1749    8.5315 C   0  0  2  0  0  0
  -21.5053  -24.0516    8.2110 C   0  0  2  0  0  0
  -22.1887  -22.7189    8.4882 C   0  0  0  0  0  0
  -18.9891  -23.0485    7.3861 H   0  0  0  0  0  0
  1  6  1  0  0  0
  1  8  1  0  0  0
  2  4  1  0  0  0
  2  7  1  0  0  0
  3  5  1  0  0  0
  3  6  1  0  0  0
  3  7  1  0  0  0
  4 17  1  0  0  0
  4  6  1  0  0  0
  5  9  1  0  0  0
  7 22  1  0  0  0
 10 12  1  0  0  0
 10 14  2  0  0  0
 10 19  1  0  0  0
 11 15  1  0  0  0
 11 17  1  0  0  0
 11 19  2  0  0  0
 12 20  1  0  0  0
 12 21  1  0  0  0
 13 18  2  0  0  0
 13 19  1  0  0  0
 14 16  1  0  0  0
 15 16  2  0  0  0
 17 18  1  0  0  0
 22 24  1  0  0  0
 23 24  1  0  0  0
 23 26  1  0  0  0
 23 27  1  0  0  0
 24 28  1  0  0  0
 25 26  1  0  0  0
 25 29  1  0  0  0
 26 27  1  0  0  0
 27 28  1  0  0  0
M  END
> <s_m_entry_id>
1015

> <s_m_entry_name>
10-myco-1_59_lig_gen_fit_add_gna.sdf.8

> <s_m_Source_Path>
C:\Users\maila\Downloads\mgr\myco-analysis

> <s_m_Source_File>
myco-10-var1-wzakresie.mae

> <i_m_Source_File_Index>
162

> <s_user_SMILES>
O[C@@H]1[C@@H]([C@@H]12)C[C@H]2C[C@@H]3[C@@H](O)[C@@H](O)[C@@H](O3)n(cn4)c(c45)ncnc5N

> <minimizedAffinity>
-10.75121

> <minimizedRMSD>
0.43612

> <CNNscore>
0.9858642817

> <CNNaffinity>
6.5539412498

> <CNN_VS>
6.4612965584

> <CNNaffinity_variance>
0.098816134

$$$$
O1[C@H]2[C@@H]1C[C@H]([C@H]23)[C@@H]3C[C@@H]4[C@@H](O)[C@@H](O)[C@@H](O4)n(cn5)c(c56)ncnc6N
                    3D
 Schrodinger Suite 2021-1.
 29 34  0  0  1  0            999 V2000
  -25.5136  -21.3498   10.4657 O   0  0  0  0  0  0
  -24.6003  -19.4243   11.9360 O   0  0  0  0  0  0
  -24.2391  -20.9294   10.0767 C   0  0  1  0  0  0
  -22.5295  -22.1743   11.2074 O   0  0  0  0  0  0
  -22.7681  -20.9995   11.9561 C   0  0  2  0  0  0
  -23.6289  -20.0445   11.1316 C   0  0  2  0  0  0
  -23.2923  -22.1278   10.0251 C   0  0  2  0  0  0
  -25.9268  -21.7519    9.6601 H   0  0  0  0  0  0
  -25.0084  -18.7065   11.3849 H   0  0  0  0  0  0
  -21.2061  -19.1396   12.7057 C   0  0  0  0  0  0
  -20.2074  -16.6628   13.1106 N   0  0  0  0  0  0
  -19.3335  -17.6797   12.8829 C   0  0  0  0  0  0
  -21.5590  -16.8847   13.1076 C   0  0  0  0  0  0
  -19.2469  -20.0380   12.2382 N   0  0  0  0  0  0
  -17.9273  -17.4425   12.8392 N   0  0  0  0  0  0
  -21.4846  -20.3911   12.3124 N   0  0  0  0  0  0
  -22.0758  -18.1282   12.8966 N   0  0  0  0  0  0
  -20.2632  -20.9189   12.0696 C   0  0  0  0  0  0
  -19.8676  -18.9375   12.6661 C   0  0  0  0  0  0
  -17.5332  -16.5181   13.1113 H   0  0  0  0  0  0
  -17.2684  -18.1938   12.5462 H   0  0  0  0  0  0
  -22.4044  -22.0776    8.7627 C   0  0  0  0  0  0
  -19.3454  -23.9990    7.1984 C   0  0  2  0  0  0
  -20.1774  -25.3591    9.0394 C   0  0  0  0  0  0
  -18.9980  -25.0928    8.1176 C   0  0  2  0  0  0
  -21.1540  -22.9699    8.8311 C   0  0  2  0  0  0
  -18.4544  -23.8005    8.2709 O   0  0  0  0  0  0
  -20.7854  -23.5664    7.4669 C   0  0  2  0  0  0
  -21.3202  -24.4600    8.5780 C   0  0  1  0  0  0
  1  3  1  0  0  0
  1  8  1  0  0  0
  2  6  1  0  0  0
  2  9  1  0  0  0
  3  6  1  0  0  0
  3  7  1  0  0  0
  4  5  1  0  0  0
  4  7  1  0  0  0
  5 16  1  0  0  0
  5  6  1  0  0  0
  7 22  1  0  0  0
 10 16  1  0  0  0
 10 17  2  0  0  0
 10 19  1  0  0  0
 11 12  1  0  0  0
 11 13  2  0  0  0
 12 15  1  0  0  0
 12 19  2  0  0  0
 13 17  1  0  0  0
 14 18  2  0  0  0
 14 19  1  0  0  0
 15 20  1  0  0  0
 15 21  1  0  0  0
 16 18  1  0  0  0
 22 26  1  0  0  0
 23 25  1  0  0  0
 23 27  1  0  0  0
 23 28  1  0  0  0
 24 25  1  0  0  0
 24 29  1  0  0  0
 25 27  1  0  0  0
 26 28  1  0  0  0
 26 29  1  0  0  0
 28 29  1  0  0  0
M  END
> <s_m_entry_id>
1016

> <s_m_entry_name>
10-myco-1_59_lig_gen_fit_add_gna.sdf.9

> <s_m_Source_Path>
C:\Users\maila\Downloads\mgr\myco-analysis

> <s_m_Source_File>
myco-10-var1-wzakresie.mae

> <i_m_Source_File_Index>
163

> <s_user_SMILES>
O1[C@H]2[C@@H]1C[C@H]([C@H]23)[C@@H]3C[C@@H]4[C@@H](O)[C@@H](O)[C@@H](O4)n(cn5)c(c56)ncnc6N

> <minimizedAffinity>
-8.7865

> <minimizedRMSD>
0.22735

> <CNNscore>
0.7941106558

> <CNNaffinity>
6.092839241

> <CNN_VS>
4.838388443

> <CNNaffinity_variance>
0.1068509445

$$$$
C1[C@@H](N)[C@]1(N)CCC[C@@H]2[C@@H](O)[C@@H](O)[C@@H](O2)n(cn3)c(c34)ncnc4N
                    3D
 Schrodinger Suite 2021-1.
 33 36  0  0  1  0            999 V2000
  -25.0620  -20.0023    9.8647 O   0  0  0  0  0  0
  -24.8623  -18.4101   11.9494 O   0  0  0  0  0  0
  -23.6473  -18.9716   11.5183 C   0  0  2  0  0  0
  -23.0202  -21.0135   12.6180 O   0  0  0  0  0  0
  -23.8555  -20.1226   10.5736 C   0  0  1  0  0  0
  -22.8737  -19.6092   12.6752 C   0  0  1  0  0  0
  -23.8848  -21.2957   11.5428 C   0  0  1  0  0  0
  -24.8785  -20.2938    8.9344 H   0  0  0  0  0  0
  -25.3820  -19.1192   12.4046 H   0  0  0  0  0  0
  -19.2161  -19.3752   12.3627 N   0  0  0  0  0  0
  -20.9285  -18.0191   12.6986 C   0  0  0  0  0  0
  -18.8308  -16.9482   12.4710 C   0  0  0  0  0  0
  -21.4602  -19.2463   12.6463 N   0  0  0  0  0  0
  -21.5822  -16.8351   12.7929 N   0  0  0  0  0  0
  -19.4831  -15.7680   12.5780 N   0  0  0  0  0  0
  -20.3852  -20.0590   12.4870 C   0  0  0  0  0  0
  -20.8318  -15.6968   12.7256 C   0  0  0  0  0  0
  -17.4236  -16.9633   12.2884 N   0  0  0  0  0  0
  -19.5921  -18.1004   12.5227 C   0  0  0  0  0  0
  -16.8705  -16.0976   12.4572 H   0  0  0  0  0  0
  -16.9576  -17.7873   11.8703 H   0  0  0  0  0  0
  -23.5398  -22.6427   10.9061 C   0  0  0  0  0  0
  -22.2579  -22.6640   10.0375 C   0  0  0  0  0  0
  -22.5952  -22.5752    8.5399 C   0  0  0  0  0  0
  -21.8542  -23.6342    6.2948 C   0  0  1  0  0  0
  -21.4253  -22.9480    7.6042 C   0  0  1  0  0  0
  -21.3054  -22.2102    6.2625 C   0  0  0  0  0  0
  -20.9522  -24.6473    5.7362 N   0  0  0  0  0  0
  -20.1738  -23.4199    8.2138 N   0  0  0  0  0  0
  -19.9495  -24.3554    5.7565 H   0  0  0  0  0  0
  -21.0476  -25.5115    6.3157 H   0  0  0  0  0  0
  -19.3430  -23.2070    7.6168 H   0  0  0  0  0  0
  -20.2329  -24.4535    8.3563 H   0  0  0  0  0  0
  1  5  1  0  0  0
  1  8  1  0  0  0
  2  3  1  0  0  0
  2  9  1  0  0  0
  3  5  1  0  0  0
  3  6  1  0  0  0
  4  6  1  0  0  0
  4  7  1  0  0  0
  5  7  1  0  0  0
  6 13  1  0  0  0
  7 22  1  0  0  0
 10 16  2  0  0  0
 10 19  1  0  0  0
 11 13  1  0  0  0
 11 14  2  0  0  0
 11 19  1  0  0  0
 12 15  1  0  0  0
 12 18  1  0  0  0
 12 19  2  0  0  0
 13 16  1  0  0  0
 14 17  1  0  0  0
 15 17  2  0  0  0
 18 20  1  0  0  0
 18 21  1  0  0  0
 22 23  1  0  0  0
 23 24  1  0  0  0
 24 26  1  0  0  0
 25 26  1  0  0  0
 25 27  1  0  0  0
 25 28  1  0  0  0
 26 27  1  0  0  0
 26 29  1  0  0  0
 28 30  1  0  0  0
 28 31  1  0  0  0
 29 32  1  0  0  0
 29 33  1  0  0  0
M  END
> <s_m_entry_id>
1017

> <s_m_entry_name>
10-myco-1_60_lig_gen_fit_add_gna.sdf.1

> <s_m_Source_Path>
C:\Users\maila\Downloads\mgr\myco-analysis

> <s_m_Source_File>
myco-10-var1-wzakresie.mae

> <i_m_Source_File_Index>
164

> <s_user_SMILES>
C1[C@@H](N)[C@]1(N)CCC[C@@H]2[C@@H](O)[C@@H](O)[C@@H](O2)n(cn3)c(c34)ncnc4N

> <minimizedAffinity>
-10.03964

> <minimizedRMSD>
0.6267

> <CNNscore>
0.9821766019

> <CNNaffinity>
6.3215589523

> <CNN_VS>
6.2088871002

> <CNNaffinity_variance>
0.1305263937

$$$$
O1CC12[C@@H](N2)CCC[C@H]([C@H](C3=O)O)O[C@H]3n(cn4)c(c45)ncnc5N
                    3D
 Schrodinger Suite 2021-1.
 29 33  0  0  1  0            999 V2000
  -25.1943  -19.8292   10.4579 O   0  0  0  0  0  0
  -22.7847  -21.2121   12.7082 O   0  0  0  0  0  0
  -23.5114  -17.9760   11.7079 O   0  0  0  0  0  0
  -22.6068  -19.8211   12.8668 C   0  0  2  0  0  0
  -23.8599  -21.3612   11.7993 C   0  0  1  0  0  0
  -23.8898  -20.1563   10.8617 C   0  0  2  0  0  0
  -23.3092  -19.1708   11.7616 C   0  0  0  0  0  0
  -25.6590  -19.4417   11.2419 H   0  0  0  0  0  0
  -20.7000  -18.2299   12.9460 C   0  0  0  0  0  0
  -18.6944  -17.0560   12.5201 C   0  0  0  0  0  0
  -21.3815  -17.0842   13.1903 N   0  0  0  0  0  0
  -19.0397  -19.4621   12.1747 N   0  0  0  0  0  0
  -19.4037  -18.2386   12.5751 C   0  0  0  0  0  0
  -17.3161  -17.0050   12.1877 N   0  0  0  0  0  0
  -19.3686  -15.9127   12.7893 N   0  0  0  0  0  0
  -21.2034  -19.4616   12.8269 N   0  0  0  0  0  0
  -20.1709  -20.1934   12.3488 C   0  0  0  0  0  0
  -20.6916  -15.9113   13.1020 C   0  0  0  0  0  0
  -16.7706  -16.1518   12.4171 H   0  0  0  0  0  0
  -16.8580  -17.7747   11.6665 H   0  0  0  0  0  0
  -23.8184  -22.7011   11.0759 C   0  0  0  0  0  0
  -22.4207  -23.3328   10.8843 C   0  0  0  0  0  0
  -21.5875  -22.6654    9.7713 C   0  0  0  0  0  0
  -21.8673  -23.3220    8.3865 C   0  0  1  0  0  0
  -22.1788  -22.6405    7.0635 C   0  0  3  0  0  0
  -20.7936  -23.0820    7.4546 N   0  0  1  0  0  0
  -23.0200  -21.4765    7.5814 C   0  0  0  0  0  0
  -21.9644  -21.2634    6.7389 O   0  0  0  0  0  0
  -20.2003  -22.2735    7.7555 H   0  0  0  0  0  0
  1  6  1  0  0  0
  1  8  1  0  0  0
  2  4  1  0  0  0
  2  5  1  0  0  0
  3  7  2  0  0  0
  4 16  1  0  0  0
  4  7  1  0  0  0
  5 21  1  0  0  0
  5  6  1  0  0  0
  6  7  1  0  0  0
  9 11  2  0  0  0
  9 13  1  0  0  0
  9 16  1  0  0  0
 10 13  2  0  0  0
 10 14  1  0  0  0
 10 15  1  0  0  0
 11 18  1  0  0  0
 12 13  1  0  0  0
 12 17  2  0  0  0
 14 19  1  0  0  0
 14 20  1  0  0  0
 15 18  2  0  0  0
 16 17  1  0  0  0
 21 22  1  0  0  0
 22 23  1  0  0  0
 23 24  1  0  0  0
 24 25  1  0  0  0
 24 26  1  0  0  0
 25 26  1  0  0  0
 25 27  1  0  0  0
 25 28  1  0  0  0
 26 29  1  0  0  0
 27 28  1  0  0  0
M  END
> <s_m_entry_id>
1018

> <s_m_entry_name>
10-myco-1_60_lig_gen_fit_add_gna.sdf.5

> <s_m_Source_Path>
C:\Users\maila\Downloads\mgr\myco-analysis

> <s_m_Source_File>
myco-10-var1-wzakresie.mae

> <i_m_Source_File_Index>
165

> <s_user_SMILES>
O1CC12[C@@H](N2)CCC[C@H]([C@H](C3=O)O)O[C@H]3n(cn4)c(c45)ncnc5N

> <minimizedAffinity>
-9.12046

> <minimizedRMSD>
1.03431

> <CNNscore>
0.9671865106

> <CNNaffinity>
6.2515802383

> <CNN_VS>
6.0464439392

> <CNNaffinity_variance>
0.1339917183

$$$$
C1[C@]2(O)[C@]3(C)[C@@]4(C123)[C@@H](C4)[C@H]5[C@@H](O)[C@@H](O)[C@@H](O5)n(cn6)c(c67)ncnc7N
                    3D
 Schrodinger Suite 2021-1.
 31 37  0  0  1  0            999 V2000
  -25.1004  -20.9581   10.5846 O   0  0  0  0  0  0
  -22.7267  -21.2224   12.2181 O   0  0  0  0  0  0
  -23.8451  -20.3641   10.3759 C   0  0  2  0  0  0
  -22.7359  -21.2985   10.8139 C   0  0  2  0  0  0
  -22.7581  -19.8399   12.4713 C   0  0  2  0  0  0
  -24.8152  -18.6522   11.8322 O   0  0  0  0  0  0
  -23.6186  -19.2157   11.3577 C   0  0  2  0  0  0
  -25.2806  -21.5362    9.8015 H   0  0  0  0  0  0
  -25.2534  -19.3204   12.4149 H   0  0  0  0  0  0
  -20.9060  -18.0937   12.6297 C   0  0  0  0  0  0
  -20.8535  -15.7725   12.6286 C   0  0  0  0  0  0
  -17.4039  -17.0105   12.8292 N   0  0  0  0  0  0
  -19.4967  -15.8175   12.6761 N   0  0  0  0  0  0
  -18.8174  -16.9849   12.6829 C   0  0  0  0  0  0
  -21.5923  -16.9257   12.6192 N   0  0  0  0  0  0
  -19.1121  -19.3706   12.4037 N   0  0  0  0  0  0
  -20.2551  -20.0920   12.3748 C   0  0  0  0  0  0
  -21.3805  -19.3385   12.4907 N   0  0  0  0  0  0
  -19.5544  -18.1338   12.6015 C   0  0  0  0  0  0
  -16.9195  -17.9017   13.0543 H   0  0  0  0  0  0
  -16.8697  -16.1241   12.8963 H   0  0  0  0  0  0
  -21.4136  -23.2369    9.8356 C   0  0  2  0  0  0
  -22.2958  -22.4453    7.4135 C   0  0  0  0  0  0
  -22.8134  -22.7291   10.2929 C   0  0  1  0  0  0
  -21.3099  -24.3836    6.3751 O   0  0  0  0  0  0
  -20.2449  -25.2612    8.7716 C   0  0  0  0  0  0
  -21.5095  -24.3890    8.8114 C   0  0  1  0  0  0
  -22.1334  -23.8181   11.0671 C   0  0  0  0  0  0
  -22.0678  -23.9426    7.4644 C   0  0  2  0  0  0
  -21.1956  -23.0148    8.3060 C   0  0  3  0  0  0
  -21.9744  -24.7509    5.7397 H   0  0  0  0  0  0
  1  3  1  0  0  0
  1  8  1  0  0  0
  2  4  1  0  0  0
  2  5  1  0  0  0
  3  4  1  0  0  0
  3  7  1  0  0  0
  4 24  1  0  0  0
  5 18  1  0  0  0
  5  7  1  0  0  0
  6  7  1  0  0  0
  6  9  1  0  0  0
 10 15  2  0  0  0
 10 18  1  0  0  0
 10 19  1  0  0  0
 11 13  2  0  0  0
 11 15  1  0  0  0
 12 14  1  0  0  0
 12 20  1  0  0  0
 12 21  1  0  0  0
 13 14  1  0  0  0
 14 19  2  0  0  0
 16 17  2  0  0  0
 16 19  1  0  0  0
 17 18  1  0  0  0
 22 24  1  0  0  0
 22 27  1  0  0  0
 22 28  1  0  0  0
 22 30  1  0  0  0
 23 29  1  0  0  0
 23 30  1  0  0  0
 24 28  1  0  0  0
 25 29  1  0  0  0
 25 31  1  0  0  0
 26 27  1  0  0  0
 27 29  1  0  0  0
 27 30  1  0  0  0
 29 30  1  0  0  0
M  END
> <s_m_entry_id>
1019

> <s_m_entry_name>
10-myco-1_60_lig_gen_fit_add_gna.sdf.8

> <s_m_Source_Path>
C:\Users\maila\Downloads\mgr\myco-analysis

> <s_m_Source_File>
myco-10-var1-wzakresie.mae

> <i_m_Source_File_Index>
166

> <s_user_SMILES>
C1[C@]2(O)[C@]3(C)[C@@]4(C123)[C@@H](C4)[C@H]5[C@@H](O)[C@@H](O)[C@@H](O5)n(cn6)c(c67)ncnc7N

> <minimizedAffinity>
-11.54893

> <minimizedRMSD>
0.53482

> <CNNscore>
0.9620789289

> <CNNaffinity>
6.678278923

> <CNN_VS>
6.425031662

> <CNNaffinity_variance>
0.0227437709

$$$$
OC[C@@H](O)/C=C/C[C@@H]1[C@@H](O)[C@@H](O)[C@@H](O1)n(cn2)c(c23)ncnc3N
                    3D
 Schrodinger Suite 2021-1.
 30 32  0  0  1  0            999 V2000
  -25.1334  -19.8872   10.0983 O   0  0  0  0  0  0
  -24.6172  -18.3008   12.1048 O   0  0  0  0  0  0
  -23.8873  -20.1341   10.6968 C   0  0  1  0  0  0
  -22.8702  -21.0958   12.6143 O   0  0  0  0  0  0
  -22.7298  -19.6971   12.7309 C   0  0  2  0  0  0
  -23.5025  -19.0054   11.6101 C   0  0  2  0  0  0
  -23.8941  -21.3039   11.6764 C   0  0  2  0  0  0
  -25.5760  -20.7597    9.9642 H   0  0  0  0  0  0
  -25.2325  -18.9545   12.5250 H   0  0  0  0  0  0
  -20.8374  -18.0831   12.7733 C   0  0  0  0  0  0
  -19.0998  -19.3700   12.3211 N   0  0  0  0  0  0
  -18.7894  -16.9340   12.5169 C   0  0  0  0  0  0
  -20.2461  -20.0937   12.4379 C   0  0  0  0  0  0
  -20.8336  -15.7612   12.8175 C   0  0  0  0  0  0
  -19.4845  -15.7796   12.6517 N   0  0  0  0  0  0
  -21.3272  -19.3225   12.7033 N   0  0  0  0  0  0
  -17.3828  -16.8939   12.3348 N   0  0  0  0  0  0
  -21.5367  -16.9277   12.8849 N   0  0  0  0  0  0
  -19.5065  -18.1147   12.5576 C   0  0  0  0  0  0
  -16.8641  -16.0187   12.5492 H   0  0  0  0  0  0
  -16.8772  -17.6884   11.9045 H   0  0  0  0  0  0
  -23.7742  -22.6728   11.0186 C   0  0  0  0  0  0
  -22.4452  -22.6912    8.9222 C   0  0  0  0  0  0
  -22.4969  -22.8883   10.2502 C   0  0  0  0  0  0
  -20.0907  -23.2377    8.7346 O   0  0  0  0  0  0
  -21.3259  -23.2388    8.0628 C   0  0  2  0  0  0
  -19.9077  -22.3062    9.0162 H   0  0  0  0  0  0
  -21.2272  -22.4634    6.7442 C   0  0  0  0  0  0
  -19.9050  -22.4780    6.2825 O   0  0  0  0  0  0
  -19.9012  -21.9486    5.4433 H   0  0  0  0  0  0
  1  3  1  0  0  0
  1  8  1  0  0  0
  2  6  1  0  0  0
  2  9  1  0  0  0
  3  6  1  0  0  0
  3  7  1  0  0  0
  4  5  1  0  0  0
  4  7  1  0  0  0
  5 16  1  0  0  0
  5  6  1  0  0  0
  7 22  1  0  0  0
 10 16  1  0  0  0
 10 18  2  0  0  0
 10 19  1  0  0  0
 11 13  2  0  0  0
 11 19  1  0  0  0
 12 15  1  0  0  0
 12 17  1  0  0  0
 12 19  2  0  0  0
 13 16  1  0  0  0
 14 15  2  0  0  0
 14 18  1  0  0  0
 17 20  1  0  0  0
 17 21  1  0  0  0
 22 24  1  0  0  0
 23 24  2  0  0  0
 23 26  1  0  0  0
 25 26  1  0  0  0
 25 27  1  0  0  0
 26 28  1  0  0  0
 28 29  1  0  0  0
 29 30  1  0  0  0
M  END
> <s_m_entry_id>
1020

> <s_m_entry_name>
10-myco-1_60_lig_gen_fit_add_gna.sdf.10

> <s_m_Source_Path>
C:\Users\maila\Downloads\mgr\myco-analysis

> <s_m_Source_File>
myco-10-var1-wzakresie.mae

> <i_m_Source_File_Index>
167

> <s_user_SMILES>
OC[C@@H](O)/C=C/C[C@@H]1[C@@H](O)[C@@H](O)[C@@H](O1)n(cn2)c(c23)ncnc3N

> <minimizedAffinity>
-9.53003

> <minimizedRMSD>
0.50998

> <CNNscore>
0.9740272164

> <CNNaffinity>
6.2385368347

> <CNN_VS>
6.0765047073

> <CNNaffinity_variance>
0.0512154326

$$$$
