10-patrmd
                    3D
 Schrodinger Suite 2021-1.
 45 48  0  0  1  0            999 V2000
  -35.1533   24.9947   -5.9739 N   0  0  0  0  0  0
  -33.9928   24.2482   -6.0488 C   0  0  0  0  0  0
  -34.2664   23.0005   -6.5857 C   0  0  0  0  0  0
  -35.6328   22.9607   -6.8501 C   0  0  0  0  0  0
  -36.1591   24.1749   -6.4514 C   0  0  0  0  0  0
  -35.2967   26.3207   -5.4955 C   0  0  0  0  0  0
  -34.3707   26.8691   -4.5976 C   0  0  0  0  0  0
  -34.5676   28.1456   -4.0730 C   0  0  0  0  0  0
  -35.6828   28.8935   -4.4465 C   0  0  0  0  0  0
  -36.6078   28.3685   -5.3596 C   0  0  0  0  0  0
  -36.3942   27.0946   -5.8966 C   0  0  0  0  0  0
  -37.8417   29.1351   -5.7398 C   0  0  0  0  0  0
  -38.5707   29.5504   -4.6865 N   0  0  0  0  0  0
  -39.7443   30.3102   -4.6993 C   0  0  0  0  0  0
  -40.0050   31.3012   -5.6550 C   0  0  0  0  0  0
  -41.1489   32.0860   -5.5408 C   0  0  0  0  0  0
  -42.0226   31.8825   -4.4689 C   0  0  0  0  0  0
  -41.7843   30.8678   -3.5398 C   0  0  0  0  0  0
  -40.6358   30.0943   -3.6495 C   0  0  0  0  0  0
  -43.4250   32.9730   -4.2275 S   0  0  0  0  0  0
  -43.6688   33.6751   -5.4917 O   0  0  0  0  0  0
  -44.4892   32.1422   -3.6529 O   0  0  0  0  0  0
  -42.9679   34.1815   -3.0026 N   0  0  0  0  0  0
  -41.7903   34.3481   -2.5445 C   0  0  0  0  0  0
  -40.5732   33.7854   -2.8745 N   0  0  0  0  0  0
  -39.4662   34.1951   -2.1791 C   0  0  0  0  0  0
  -39.7232   35.1135   -1.2458 C   0  0  0  0  0  0
  -41.4398   35.5116   -1.2232 S   0  0  0  0  0  0
  -38.1405   29.2954   -6.9246 O   0  0  0  0  0  0
  -33.0496   24.6679   -5.7289 H   0  0  0  0  0  0
  -33.5523   22.2101   -6.7701 H   0  0  0  0  0  0
  -36.1848   22.1422   -7.2821 H   0  0  0  0  0  0
  -37.1834   24.5187   -6.4740 H   0  0  0  0  0  0
  -33.5031   26.3096   -4.2855 H   0  0  0  0  0  0
  -33.8556   28.5556   -3.3726 H   0  0  0  0  0  0
  -35.8218   29.8836   -4.0328 H   0  0  0  0  0  0
  -37.1160   26.6981   -6.5971 H   0  0  0  0  0  0
  -38.2643   29.2404   -3.7768 H   0  0  0  0  0  0
  -39.3105   31.4971   -6.4584 H   0  0  0  0  0  0
  -41.3285   32.8745   -6.2595 H   0  0  0  0  0  0
  -42.4572   30.6968   -2.7084 H   0  0  0  0  0  0
  -40.4468   29.3402   -2.8982 H   0  0  0  0  0  0
  -38.5062   33.7671   -2.4443 H   0  0  0  0  0  0
  -39.0108   35.5865   -0.5847 H   0  0  0  0  0  0
  -40.5077   33.0954   -3.6101 H   0  0  0  0  0  0
  1  2  1  0  0  0
  1  5  1  0  0  0
  1  6  1  0  0  0
  2  3  2  0  0  0
  2 30  1  0  0  0
  3  4  1  0  0  0
  3 31  1  0  0  0
  4  5  2  0  0  0
  4 32  1  0  0  0
  5 33  1  0  0  0
  6  7  2  0  0  0
  6 11  1  0  0  0
  7  8  1  0  0  0
  7 34  1  0  0  0
  8  9  2  0  0  0
  8 35  1  0  0  0
  9 10  1  0  0  0
  9 36  1  0  0  0
 10 11  2  0  0  0
 10 12  1  0  0  0
 11 37  1  0  0  0
 12 13  1  0  0  0
 12 29  2  0  0  0
 13 14  1  0  0  0
 13 38  1  0  0  0
 14 15  2  0  0  0
 14 19  1  0  0  0
 15 16  1  0  0  0
 15 39  1  0  0  0
 16 17  2  0  0  0
 16 40  1  0  0  0
 17 18  1  0  0  0
 17 20  1  0  0  0
 18 19  2  0  0  0
 18 41  1  0  0  0
 19 42  1  0  0  0
 20 21  2  0  0  0
 20 22  2  0  0  0
 20 23  1  0  0  0
 23 24  2  0  0  0
 24 25  1  0  0  0
 24 28  1  0  0  0
 25 26  1  0  0  0
 25 45  1  0  0  0
 26 27  2  0  0  0
 26 43  1  0  0  0
 27 28  1  0  0  0
 27 44  1  0  0  0
M  END
> <s_m_entry_id>
25

> <s_m_entry_name>
10-GlideSP.1

> <s_m_Source_Path>
C:\Users\maila\Downloads\mgr\Dynamika_dlaRoksany\6joe

> <s_m_Source_File>
10-GlideSP.mol2

> <i_m_Source_File_Index>
1

$$$$
