11_patrmd
                    3D
 Schrodinger Suite 2021-1.
 33 35  0  0  1  0            999 V2000
  -34.0007   23.5335  -12.0783 C   0  0  0  0  0  0
  -33.1283   22.7448  -11.3293 C   0  0  0  0  0  0
  -33.4658   22.4611  -10.0081 C   0  0  0  0  0  0
  -34.5826   22.9423   -9.4089 N   0  0  0  0  0  0
  -35.4192   23.7419  -10.1340 C   0  0  0  0  0  0
  -35.1666   24.0267  -11.4872 C   0  0  0  0  0  0
  -33.6169   23.9277  -13.7130 Cl  0  0  0  0  0  0
  -36.5438   24.4482   -9.4072 C   0  0  0  0  0  0
  -36.4130   24.5421   -8.0625 N   0  0  0  0  0  0
  -36.7644   25.6503   -7.2900 C   0  0  0  0  0  0
  -37.4662   24.9462  -10.0504 O   0  0  0  0  0  0
  -38.0725   26.7335   -7.7425 S   0  0  0  0  0  0
  -37.6660   27.7884   -6.4499 C   0  0  0  0  0  0
  -36.6406   27.3108   -5.6668 C   0  0  0  0  0  0
  -36.0818   26.0967   -6.1349 C   0  0  0  0  0  0
  -36.4028   28.2598   -4.5106 C   0  0  0  0  0  0
  -37.6772   29.1212   -4.5214 C   0  0  0  0  0  0
  -38.2354   29.0873   -5.9507 C   0  0  0  0  0  0
  -34.9977   25.3821   -5.4939 C   0  0  0  0  0  0
  -34.8557   24.1644   -5.5810 O   0  0  0  0  0  0
  -34.1169   26.1464   -4.8497 N   0  0  0  0  0  0
  -32.2194   22.3538  -11.7625 H   0  0  0  0  0  0
  -32.8362   21.8352   -9.3963 H   0  0  0  0  0  0
  -35.8235   24.6701  -12.0574 H   0  0  0  0  0  0
  -35.7259   23.9299   -7.6409 H   0  0  0  0  0  0
  -36.2783   27.7604   -3.5494 H   0  0  0  0  0  0
  -35.5242   28.8848   -4.6746 H   0  0  0  0  0  0
  -37.4998   30.1415   -4.1764 H   0  0  0  0  0  0
  -38.4101   28.6836   -3.8389 H   0  0  0  0  0  0
  -39.3261   29.1235   -5.9523 H   0  0  0  0  0  0
  -37.8747   29.9355   -6.5339 H   0  0  0  0  0  0
  -33.2925   25.7291   -4.4323 H   0  0  0  0  0  0
  -34.2998   27.1290   -4.7256 H   0  0  0  0  0  0
  1  2  2  0  0  0
  1  6  1  0  0  0
  1  7  1  0  0  0
  2  3  1  0  0  0
  2 22  1  0  0  0
  3  4  2  0  0  0
  3 23  1  0  0  0
  4  5  1  0  0  0
  5  6  2  0  0  0
  5  8  1  0  0  0
  6 24  1  0  0  0
  8  9  1  0  0  0
  8 11  2  0  0  0
  9 10  1  0  0  0
  9 25  1  0  0  0
 10 15  2  0  0  0
 10 12  1  0  0  0
 12 13  1  0  0  0
 13 14  2  0  0  0
 13 18  1  0  0  0
 14 15  1  0  0  0
 14 16  1  0  0  0
 15 19  1  0  0  0
 16 17  1  0  0  0
 16 26  1  0  0  0
 16 27  1  0  0  0
 17 18  1  0  0  0
 17 28  1  0  0  0
 17 29  1  0  0  0
 18 30  1  0  0  0
 18 31  1  0  0  0
 19 20  2  0  0  0
 19 21  1  0  0  0
 21 32  1  0  0  0
 21 33  1  0  0  0
M  END
> <s_m_entry_id>
26

> <s_m_entry_name>
11-GlideSP.1

> <s_m_Source_Path>
C:\Users\maila\Downloads\mgr\Dynamika_dlaRoksany\6joe

> <s_m_Source_File>
11-GlideSP.mol2

> <i_m_Source_File_Index>
1

$$$$
