13-patrmd
                    3D
 Schrodinger Suite 2021-1.
 31 32  0  0  1  0            999 V2000
  -35.8398   27.2950   -5.6879 C   0  0  0  0  0  0
  -36.4196   28.5020   -6.0798 C   0  0  0  0  0  0
  -37.4336   28.5070   -7.0350 C   0  0  0  0  0  0
  -37.8707   27.3060   -7.5928 C   0  0  0  0  0  0
  -37.3123   26.0862   -7.1990 C   0  0  0  0  0  0
  -36.2850   26.0923   -6.2391 C   0  0  0  0  0  0
  -34.5581   27.2969   -4.5333 Cl  0  0  0  0  0  0
  -37.8372   24.9506   -7.7901 O   0  0  0  0  0  0
  -37.4627   23.6478   -7.3272 C   0  0  0  0  0  0
  -36.1211   23.1905   -7.9226 C   0  0  0  0  0  0
  -35.8972   23.5041   -9.2184 N   0  0  0  0  0  0
  -35.3519   22.5582   -7.2003 O   0  0  0  0  0  0
  -34.7930   23.2001  -10.0206 C   0  0  0  0  0  0
  -33.4664   22.2176   -9.4565 S   0  0  0  0  0  0
  -32.6370   22.3834  -10.9572 C   0  0  0  0  0  0
  -33.3680   23.1228  -11.8652 C   0  0  0  0  0  0
  -34.5821   23.6285  -11.3464 C   0  0  0  0  0  0
  -35.5209   24.4276  -12.1055 C   0  0  0  0  0  0
  -36.6659   24.6419  -11.7108 O   0  0  0  0  0  0
  -35.0662   24.9424  -13.2491 N   0  0  0  0  0  0
  -36.0857   29.4343   -5.6450 H   0  0  0  0  0  0
  -37.8829   29.4411   -7.3397 H   0  0  0  0  0  0
  -38.6631   27.3159   -8.3252 H   0  0  0  0  0  0
  -35.8232   25.1735   -5.9090 H   0  0  0  0  0  0
  -38.2286   22.9426   -7.6503 H   0  0  0  0  0  0
  -37.4471   23.5948   -6.2369 H   0  0  0  0  0  0
  -36.6128   24.0497   -9.6810 H   0  0  0  0  0  0
  -31.6766   21.9096  -11.1071 H   0  0  0  0  0  0
  -33.0182   23.2958  -12.8702 H   0  0  0  0  0  0
  -35.6924   25.5434  -13.7832 H   0  0  0  0  0  0
  -34.1329   24.7787  -13.5846 H   0  0  0  0  0  0
  1  2  2  0  0  0
  1  6  1  0  0  0
  1  7  1  0  0  0
  2  3  1  0  0  0
  2 21  1  0  0  0
  3  4  2  0  0  0
  3 22  1  0  0  0
  4  5  1  0  0  0
  4 23  1  0  0  0
  5  6  2  0  0  0
  5  8  1  0  0  0
  6 24  1  0  0  0
  8  9  1  0  0  0
  9 10  1  0  0  0
  9 25  1  0  0  0
  9 26  1  0  0  0
 10 11  1  0  0  0
 10 12  2  0  0  0
 11 13  1  0  0  0
 11 27  1  0  0  0
 13 17  2  0  0  0
 13 14  1  0  0  0
 14 15  1  0  0  0
 15 16  2  0  0  0
 15 28  1  0  0  0
 16 17  1  0  0  0
 16 29  1  0  0  0
 17 18  1  0  0  0
 18 19  2  0  0  0
 18 20  1  0  0  0
 20 30  1  0  0  0
 20 31  1  0  0  0
M  END
> <s_m_entry_id>
27

> <s_m_entry_name>
13-GlideSP.1

> <s_m_Source_Path>
C:\Users\maila\Downloads\mgr\Dynamika_dlaRoksany\6joe

> <s_m_Source_File>
13-GlideSP.mol2

> <i_m_Source_File_Index>
1

$$$$
