15-patrmd
                    3D
 Schrodinger Suite 2021-1.
 55 58  0  0  1  0            999 V2000
  -37.0429   32.9418  -12.8070 C   0  0  0  0  0  0
  -37.2710   32.1191  -14.0965 C   0  0  0  0  0  0
  -36.1235   31.1265  -14.3522 C   0  0  0  0  0  0
  -35.8497   30.2666  -13.1040 C   0  0  0  0  0  0
  -35.6723   31.1207  -11.8237 C   0  0  0  0  0  0
  -36.8643   31.9871  -11.6937 N   0  0  0  0  0  0
  -37.9169   31.7213  -10.8645 C   0  0  0  0  0  0
  -37.7190   30.8608   -9.6327 C   0  0  0  0  0  0
  -39.0550   32.1425  -11.0883 O   0  0  0  0  0  0
  -38.7323   29.9728   -9.2495 C   0  0  0  0  0  0
  -38.5849   29.1639   -8.1308 C   0  0  0  0  0  0
  -37.4162   29.2317   -7.3769 C   0  0  0  0  0  0
  -36.4192   30.1497   -7.7142 C   0  0  0  0  0  0
  -36.5779   30.9733   -8.8268 C   0  0  0  0  0  0
  -37.2586   28.3351   -6.1584 C   0  0  0  0  0  0
  -36.5856   27.0697   -6.4504 N   0  0  0  0  0  0
  -37.1010   26.0343   -7.1459 C   0  0  0  0  0  0
  -36.2298   24.7909   -7.1655 C   0  0  0  0  0  0
  -38.2275   26.0470   -7.6407 O   0  0  0  0  0  0
  -35.9530   23.9879   -8.3208 C   0  0  0  0  0  0
  -35.2406   22.7928   -8.1153 C   0  0  0  0  0  0
  -34.6662   22.4741   -6.8914 C   0  0  0  0  0  0
  -34.8534   23.3049   -5.8018 C   0  0  0  0  0  0
  -35.6509   24.4295   -5.9348 C   0  0  0  0  0  0
  -36.3675   24.3200   -9.7516 C   0  0  0  0  0  0
  -37.4052   24.9355   -9.9914 O   0  0  0  0  0  0
  -35.4810   24.0860  -10.9231 C   0  0  0  0  0  0
  -33.8907   23.3449  -10.8474 S   0  0  0  0  0  0
  -33.6439   23.5361  -12.5459 C   0  0  0  0  0  0
  -34.7248   24.1454  -13.1529 C   0  0  0  0  0  0
  -35.7468   24.4532  -12.2484 C   0  0  0  0  0  0
  -37.8622   33.6418  -12.6293 H   0  0  0  0  0  0
  -36.1373   33.5443  -12.8976 H   0  0  0  0  0  0
  -37.3790   32.7936  -14.9455 H   0  0  0  0  0  0
  -38.2165   31.5759  -14.0196 H   0  0  0  0  0  0
  -36.3503   30.4934  -15.2130 H   0  0  0  0  0  0
  -35.2193   31.6827  -14.6100 H   0  0  0  0  0  0
  -34.9613   29.6563  -13.2630 H   0  0  0  0  0  0
  -36.6671   29.5605  -12.9614 H   0  0  0  0  0  0
  -35.5027   30.4671  -10.9718 H   0  0  0  0  0  0
  -34.7913   31.7564  -11.9172 H   0  0  0  0  0  0
  -39.6420   29.8948   -9.8250 H   0  0  0  0  0  0
  -39.3690   28.4702   -7.8627 H   0  0  0  0  0  0
  -35.5250   30.2404   -7.1143 H   0  0  0  0  0  0
  -35.8028   31.6908   -9.0583 H   0  0  0  0  0  0
  -36.6831   28.8673   -5.3987 H   0  0  0  0  0  0
  -38.2344   28.1433   -5.7031 H   0  0  0  0  0  0
  -35.6379   26.9796   -6.1244 H   0  0  0  0  0  0
  -35.1058   22.0783   -8.9133 H   0  0  0  0  0  0
  -34.0917   21.5665   -6.7810 H   0  0  0  0  0  0
  -34.4254   23.0497   -4.8444 H   0  0  0  0  0  0
  -35.8317   25.0140   -5.0426 H   0  0  0  0  0  0
  -32.7291   23.1924  -13.0008 H   0  0  0  0  0  0
  -34.7803   24.3668  -14.2097 H   0  0  0  0  0  0
  -36.6590   24.9405  -12.5576 H   0  0  0  0  0  0
  1  2  1  0  0  0
  1  6  1  0  0  0
  1 32  1  0  0  0
  1 33  1  0  0  0
  2  3  1  0  0  0
  2 34  1  0  0  0
  2 35  1  0  0  0
  3  4  1  0  0  0
  3 36  1  0  0  0
  3 37  1  0  0  0
  4  5  1  0  0  0
  4 38  1  0  0  0
  4 39  1  0  0  0
  5  6  1  0  0  0
  5 40  1  0  0  0
  5 41  1  0  0  0
  6  7  1  0  0  0
  7  8  1  0  0  0
  7  9  2  0  0  0
  8 10  2  0  0  0
  8 14  1  0  0  0
 10 11  1  0  0  0
 10 42  1  0  0  0
 11 12  2  0  0  0
 11 43  1  0  0  0
 12 13  1  0  0  0
 12 15  1  0  0  0
 13 14  2  0  0  0
 13 44  1  0  0  0
 14 45  1  0  0  0
 15 16  1  0  0  0
 15 46  1  0  0  0
 15 47  1  0  0  0
 16 17  1  0  0  0
 16 48  1  0  0  0
 17 18  1  0  0  0
 17 19  2  0  0  0
 18 20  2  0  0  0
 18 24  1  0  0  0
 20 21  1  0  0  0
 20 25  1  0  0  0
 21 22  2  0  0  0
 21 49  1  0  0  0
 22 23  1  0  0  0
 22 50  1  0  0  0
 23 24  2  0  0  0
 23 51  1  0  0  0
 24 52  1  0  0  0
 25 26  2  0  0  0
 25 27  1  0  0  0
 27 31  2  0  0  0
 27 28  1  0  0  0
 28 29  1  0  0  0
 29 30  2  0  0  0
 29 53  1  0  0  0
 30 31  1  0  0  0
 30 54  1  0  0  0
 31 55  1  0  0  0
M  END
> <s_m_entry_id>
28

> <s_m_entry_name>
15-GlideSP.1

> <s_m_Source_Path>
C:\Users\maila\Downloads\mgr\Dynamika_dlaRoksany\6joe

> <s_m_Source_File>
15-GlideSP.mol2

> <i_m_Source_File_Index>
1

$$$$
