18-patrmd
                    3D
 Schrodinger Suite 2021-1.
 35 37  0  0  1  0            999 V2000
  -36.6659   24.9614  -10.8139 S   0  0  0  0  0  0
  -36.2066   23.9393   -9.4617 C   0  0  0  0  0  0
  -35.0511   23.2309   -9.7067 C   0  0  0  0  0  0
  -34.5342   23.5176  -11.0013 C   0  0  0  0  0  0
  -35.2782   24.4027  -11.6919 C   0  0  0  0  0  0
  -34.7705   24.7279  -13.0385 C   0  0  0  0  0  0
  -33.4312   23.9439  -13.0829 C   0  0  0  0  0  0
  -33.3540   23.0745  -11.7925 C   0  0  0  0  0  0
  -37.0317   23.9199   -8.2537 C   0  0  0  0  0  0
  -36.6224   22.9456   -7.3978 O   0  0  0  0  0  0
  -35.2451   22.7848   -7.0481 C   0  0  0  0  0  0
  -37.9724   24.6930   -8.0525 O   0  0  0  0  0  0
  -34.8450   23.8141   -5.9771 C   0  0  0  0  0  0
  -35.6271   24.9166   -5.9289 N   0  0  0  0  0  0
  -33.8872   23.6037   -5.2272 O   0  0  0  0  0  0
  -35.3105   26.1803   -5.3897 C   0  0  0  0  0  0
  -36.1407   27.2715   -5.7071 C   0  0  0  0  0  0
  -35.8305   28.5283   -5.1792 C   0  0  0  0  0  0
  -34.7138   28.6775   -4.3561 C   0  0  0  0  0  0
  -33.9337   27.5547   -4.0834 C   0  0  0  0  0  0
  -34.2160   26.3257   -4.5846 N   0  0  0  0  0  0
  -34.3065   30.2173   -3.6905 Cl  0  0  0  0  0  0
  -37.5314   27.1126   -6.7287 Cl  0  0  0  0  0  0
  -34.5773   22.5422   -9.0229 H   0  0  0  0  0  0
  -34.6220   25.8003  -13.1646 H   0  0  0  0  0  0
  -35.4629   24.3810  -13.8056 H   0  0  0  0  0  0
  -33.3398   23.3420  -13.9870 H   0  0  0  0  0  0
  -32.6020   24.6513  -13.0885 H   0  0  0  0  0  0
  -32.4198   23.2370  -11.2549 H   0  0  0  0  0  0
  -33.4220   22.0132  -12.0317 H   0  0  0  0  0  0
  -35.0604   21.7744   -6.6751 H   0  0  0  0  0  0
  -34.6161   22.9364   -7.9281 H   0  0  0  0  0  0
  -36.5716   24.8245   -6.2746 H   0  0  0  0  0  0
  -36.4523   29.3821   -5.4076 H   0  0  0  0  0  0
  -33.0605   27.6265   -3.4514 H   0  0  0  0  0  0
  1  2  1  0  0  0
  1  5  1  0  0  0
  2  3  2  0  0  0
  2  9  1  0  0  0
  3  4  1  0  0  0
  3 24  1  0  0  0
  4  5  2  0  0  0
  4  8  1  0  0  0
  5  6  1  0  0  0
  6  7  1  0  0  0
  6 25  1  0  0  0
  6 26  1  0  0  0
  7  8  1  0  0  0
  7 27  1  0  0  0
  7 28  1  0  0  0
  8 29  1  0  0  0
  8 30  1  0  0  0
  9 10  1  0  0  0
  9 12  2  0  0  0
 10 11  1  0  0  0
 11 13  1  0  0  0
 11 31  1  0  0  0
 11 32  1  0  0  0
 13 14  1  0  0  0
 13 15  2  0  0  0
 14 16  1  0  0  0
 14 33  1  0  0  0
 16 21  2  0  0  0
 16 17  1  0  0  0
 17 18  2  0  0  0
 17 23  1  0  0  0
 18 19  1  0  0  0
 18 34  1  0  0  0
 19 20  2  0  0  0
 19 22  1  0  0  0
 20 21  1  0  0  0
 20 35  1  0  0  0
M  END
> <s_m_entry_id>
29

> <s_m_entry_name>
18-GlideXP.1

> <s_m_Source_Path>
C:\Users\maila\Downloads\mgr\Dynamika_dlaRoksany\6joe

> <s_m_Source_File>
18-GlideXP.mol2

> <i_m_Source_File_Index>
1

$$$$
