24_patrmd
                    3D
 Schrodinger Suite 2021-1.
 35 37  0  0  1  0            999 V2000
  -35.8058   23.9409   -6.7115 C   0  0  0  0  0  0
  -34.9864   22.8631   -7.0478 C   0  0  0  0  0  0
  -34.7666   22.5436   -8.3885 C   0  0  0  0  0  0
  -35.4091   23.2647   -9.3948 C   0  0  0  0  0  0
  -36.2663   24.3102   -9.0619 C   0  0  0  0  0  0
  -36.4131   24.6947   -7.7223 C   0  0  0  0  0  0
  -35.0661   22.9426  -11.0529 Cl  0  0  0  0  0  0
  -37.1064   25.8855   -7.4295 N   0  0  0  0  0  0
  -36.7204   26.9638   -6.6437 C   0  0  0  0  0  0
  -37.7538   27.8809   -6.7945 C   0  0  0  0  0  0
  -38.6663   27.2763   -7.6496 C   0  0  0  0  0  0
  -38.2751   26.0978   -8.0488 N   0  0  0  0  0  0
  -35.4180   27.0636   -5.8693 C   0  0  0  0  0  0
  -37.9638   29.1058   -6.1041 C   0  0  0  0  0  0
  -37.4012   30.1433   -6.4497 O   0  0  0  0  0  0
  -38.8351   28.9427   -5.0940 N   0  0  0  0  0  0
  -39.3464   29.9431   -4.3042 C   0  0  0  0  0  0
  -39.4641   29.7420   -3.0108 N   0  0  0  0  0  0
  -40.1153   30.8315   -2.6173 N   0  0  0  0  0  0
  -40.3323   31.6420   -3.6933 C   0  0  0  0  0  0
  -39.8673   31.0730   -4.7760 N   0  0  0  0  0  0
  -35.6309   26.9150   -4.3608 C   0  0  0  0  0  0
  -35.9408   24.2005   -5.6712 H   0  0  0  0  0  0
  -34.4991   22.2915   -6.2709 H   0  0  0  0  0  0
  -34.0882   21.7459   -8.6472 H   0  0  0  0  0  0
  -36.7229   24.8883   -9.8524 H   0  0  0  0  0  0
  -39.6026   27.7033   -7.9710 H   0  0  0  0  0  0
  -34.6668   26.3496   -6.2084 H   0  0  0  0  0  0
  -34.9824   28.0446   -6.0537 H   0  0  0  0  0  0
  -39.1025   27.9945   -4.8505 H   0  0  0  0  0  0
  -40.8464   32.5867   -3.5992 H   0  0  0  0  0  0
  -34.6821   27.0134   -3.8306 H   0  0  0  0  0  0
  -36.0536   25.9400   -4.1180 H   0  0  0  0  0  0
  -36.3088   27.6738   -3.9641 H   0  0  0  0  0  0
  -40.4222   30.9732   -1.6638 H   0  0  0  0  0  0
  1  2  2  0  0  0
  1  6  1  0  0  0
  1 23  1  0  0  0
  2  3  1  0  0  0
  2 24  1  0  0  0
  3  4  2  0  0  0
  3 25  1  0  0  0
  4  5  1  0  0  0
  4  7  1  0  0  0
  5  6  2  0  0  0
  5 26  1  0  0  0
  6  8  1  0  0  0
  8 12  1  0  0  0
  8  9  1  0  0  0
  9 10  2  0  0  0
  9 13  1  0  0  0
 10 11  1  0  0  0
 10 14  1  0  0  0
 11 12  2  0  0  0
 11 27  1  0  0  0
 13 22  1  0  0  0
 13 28  1  0  0  0
 13 29  1  0  0  0
 14 15  2  0  0  0
 14 16  1  0  0  0
 16 17  1  0  0  0
 16 30  1  0  0  0
 17 21  1  0  0  0
 17 18  2  0  0  0
 18 19  1  0  0  0
 19 20  1  0  0  0
 19 35  1  0  0  0
 20 21  2  0  0  0
 20 31  1  0  0  0
 22 32  1  0  0  0
 22 33  1  0  0  0
 22 34  1  0  0  0
M  END
> <s_m_entry_id>
30

> <s_m_entry_name>
24-GlideSP.1

> <s_m_Source_Path>
C:\Users\maila\Downloads\mgr\Dynamika_dlaRoksany\6joe

> <s_m_Source_File>
24-GlideSP.mol2

> <i_m_Source_File_Index>
1

$$$$
