25_patrmd
                    3D
 Schrodinger Suite 2021-1.
 32 34  0  0  1  0            999 V2000
  -35.6782   23.7141  -10.5647 C   0  0  0  0  0  0
  -34.5283   22.9421  -10.4033 C   0  0  0  0  0  0
  -34.1228   22.5551   -9.1261 C   0  0  0  0  0  0
  -34.8627   22.9433   -8.0074 C   0  0  0  0  0  0
  -36.0369   23.6983   -8.1655 C   0  0  0  0  0  0
  -36.4347   24.0818   -9.4515 C   0  0  0  0  0  0
  -36.8737   24.1393   -6.9670 C   0  0  0  0  0  0
  -36.4588   25.4271   -6.4254 N   0  0  0  0  0  0
  -34.2667   22.5424   -6.4385 Cl  0  0  0  0  0  0
  -35.4868   25.6820   -5.4900 C   0  0  0  0  0  0
  -35.4324   27.0658   -5.3601 C   0  0  0  0  0  0
  -36.4594   27.5156   -6.2063 C   0  0  0  0  0  0
  -37.0390   26.5456   -6.8770 N   0  0  0  0  0  0
  -34.6641   27.8674   -4.4490 C   0  0  0  0  0  0
  -35.0941   28.9548   -4.0622 O   0  0  0  0  0  0
  -33.4727   27.3428   -4.0885 N   0  0  0  0  0  0
  -32.6836   27.9173   -3.1164 C   0  0  0  0  0  0
  -32.6656   27.4013   -1.9097 N   0  0  0  0  0  0
  -31.8814   28.2500   -1.2497 N   0  0  0  0  0  0
  -31.4392   29.2140   -2.1094 C   0  0  0  0  0  0
  -31.9382   29.0033   -3.3047 N   0  0  0  0  0  0
  -35.9879   24.0194  -11.5538 H   0  0  0  0  0  0
  -33.9473   22.6515  -11.2661 H   0  0  0  0  0  0
  -33.2179   21.9784   -8.9989 H   0  0  0  0  0  0
  -37.3262   24.6779   -9.5865 H   0  0  0  0  0  0
  -36.8398   23.4015   -6.1644 H   0  0  0  0  0  0
  -37.9220   24.2076   -7.2619 H   0  0  0  0  0  0
  -34.9458   24.8774   -5.0155 H   0  0  0  0  0  0
  -36.7683   28.5451   -6.3295 H   0  0  0  0  0  0
  -30.7692   29.9974   -1.7794 H   0  0  0  0  0  0
  -33.1942   26.4321   -4.4182 H   0  0  0  0  0  0
  -31.6719   28.1450   -0.2578 H   0  0  0  0  0  0
  1  2  2  0  0  0
  1  6  1  0  0  0
  1 22  1  0  0  0
  2  3  1  0  0  0
  2 23  1  0  0  0
  3  4  2  0  0  0
  3 24  1  0  0  0
  4  5  1  0  0  0
  4  9  1  0  0  0
  5  6  2  0  0  0
  5  7  1  0  0  0
  6 25  1  0  0  0
  7  8  1  0  0  0
  7 26  1  0  0  0
  7 27  1  0  0  0
  8 13  1  0  0  0
  8 10  1  0  0  0
 10 11  2  0  0  0
 10 28  1  0  0  0
 11 12  1  0  0  0
 11 14  1  0  0  0
 12 13  2  0  0  0
 12 29  1  0  0  0
 14 15  2  0  0  0
 14 16  1  0  0  0
 16 31  1  0  0  0
 16 17  1  0  0  0
 17 21  1  0  0  0
 17 18  2  0  0  0
 18 19  1  0  0  0
 19 20  1  0  0  0
 19 32  1  0  0  0
 20 30  1  0  0  0
 20 21  2  0  0  0
M  END
> <s_m_entry_id>
31

> <s_m_entry_name>
25-GlideSP.1

> <s_m_Source_Path>
C:\Users\maila\Downloads\mgr\Dynamika_dlaRoksany\6joe

> <s_m_Source_File>
25-GlideSP.mol2

> <i_m_Source_File_Index>
1

$$$$
