29_patrmd
                    3D
 Schrodinger Suite 2021-1.
 51 56  0  0  1  0            999 V2000
  -38.2601   33.4516  -14.8588 C   0  0  0  0  0  0
  -37.9717   33.7857  -16.1807 C   0  0  0  0  0  0
  -36.7762   33.3603  -16.7567 C   0  0  0  0  0  0
  -35.8678   32.6031  -16.0214 C   0  0  0  0  0  0
  -36.1592   32.2661  -14.7066 C   0  0  0  0  0  0
  -37.3570   32.6863  -14.1119 C   0  0  0  0  0  0
  -37.6624   32.3222  -12.6909 C   0  0  0  0  0  0
  -38.8459   32.5371  -11.9615 C   0  0  0  0  0  0
  -38.6166   32.0048  -10.7079 C   0  0  0  0  0  0
  -37.3248   31.5222  -10.7380 N   0  0  0  0  0  0
  -36.7645   31.7114  -11.9426 N   0  0  0  0  0  0
  -39.3466   31.8661   -9.5357 N   0  0  0  0  0  0
  -38.7726   31.1736   -8.4685 C   0  0  0  0  0  0
  -37.4943   30.6983   -8.4967 C   0  0  0  0  0  0
  -36.6427   30.8814   -9.6620 C   0  0  0  0  0  0
  -39.6418   31.0123   -7.2305 C   0  0  0  0  0  0
  -38.7823   30.8180   -5.9638 C   0  0  0  0  0  0
  -37.8053   29.7406   -6.2238 N   0  0  0  0  0  0
  -36.8386   29.9552   -7.3243 C   0  0  0  0  0  0
  -37.4662   28.9116   -5.1973 C   0  0  0  0  0  0
  -36.5971   27.7103   -5.4863 C   0  0  0  0  0  0
  -35.4326   27.5078   -4.7417 C   0  0  0  0  0  0
  -34.6693   26.3531   -4.8995 C   0  0  0  0  0  0
  -35.0831   25.3433   -5.7972 C   0  0  0  0  0  0
  -36.2667   25.5437   -6.5724 C   0  0  0  0  0  0
  -36.9991   26.7487   -6.4238 C   0  0  0  0  0  0
  -34.3388   24.2047   -5.8919 N   0  0  0  0  0  0
  -34.7541   23.2359   -6.7449 C   0  0  0  0  0  0
  -35.8980   23.3439   -7.5324 C   0  0  0  0  0  0
  -36.6663   24.5051   -7.4528 C   0  0  0  0  0  0
  -37.8678   29.0615   -4.0412 O   0  0  0  0  0  0
  -35.4665   30.5423   -9.7876 O   0  0  0  0  0  0
  -39.1823   33.7954  -14.4147 H   0  0  0  0  0  0
  -38.6659   34.3811  -16.7546 H   0  0  0  0  0  0
  -36.5444   33.6275  -17.7773 H   0  0  0  0  0  0
  -34.9282   32.2901  -16.4493 H   0  0  0  0  0  0
  -35.4412   31.6805  -14.1507 H   0  0  0  0  0  0
  -39.7451   33.0298  -12.2974 H   0  0  0  0  0  0
  -40.2773   31.8868   -7.0848 H   0  0  0  0  0  0
  -40.3083   30.1600   -7.3676 H   0  0  0  0  0  0
  -38.2669   31.7407   -5.6957 H   0  0  0  0  0  0
  -39.4381   30.5868   -5.1214 H   0  0  0  0  0  0
  -36.4382   29.0091   -7.6884 H   0  0  0  0  0  0
  -35.9974   30.5422   -6.9524 H   0  0  0  0  0  0
  -35.1265   28.2431   -4.0095 H   0  0  0  0  0  0
  -33.7728   26.2038   -4.3153 H   0  0  0  0  0  0
  -37.9121   26.8815   -6.9880 H   0  0  0  0  0  0
  -34.1391   22.3481   -6.7897 H   0  0  0  0  0  0
  -36.1841   22.5405   -8.1949 H   0  0  0  0  0  0
  -37.5623   24.6169   -8.0474 H   0  0  0  0  0  0
  -40.2475   32.3088   -9.4326 H   0  0  0  0  0  0
  1  2  2  0  0  0
  1  6  1  0  0  0
  1 33  1  0  0  0
  2  3  1  0  0  0
  2 34  1  0  0  0
  3  4  2  0  0  0
  3 35  1  0  0  0
  4  5  1  0  0  0
  4 36  1  0  0  0
  5  6  2  0  0  0
  5 37  1  0  0  0
  6  7  1  0  0  0
  7 11  2  0  0  0
  7  8  1  0  0  0
  8  9  2  0  0  0
  8 38  1  0  0  0
  9 10  1  0  0  0
  9 12  1  0  0  0
 10 11  1  0  0  0
 10 15  1  0  0  0
 12 13  1  0  0  0
 12 51  1  0  0  0
 13 14  2  0  0  0
 13 16  1  0  0  0
 14 15  1  0  0  0
 14 19  1  0  0  0
 15 32  2  0  0  0
 16 17  1  0  0  0
 16 39  1  0  0  0
 16 40  1  0  0  0
 17 18  1  0  0  0
 17 41  1  0  0  0
 17 42  1  0  0  0
 18 19  1  0  0  0
 18 20  1  0  0  0
 19 43  1  0  0  0
 19 44  1  0  0  0
 20 21  1  0  0  0
 20 31  2  0  0  0
 21 26  2  0  0  0
 21 22  1  0  0  0
 22 23  2  0  0  0
 22 45  1  0  0  0
 23 24  1  0  0  0
 23 46  1  0  0  0
 24 25  2  0  0  0
 24 27  1  0  0  0
 25 26  1  0  0  0
 25 30  1  0  0  0
 26 47  1  0  0  0
 27 28  2  0  0  0
 28 29  1  0  0  0
 28 48  1  0  0  0
 29 30  2  0  0  0
 29 49  1  0  0  0
 30 50  1  0  0  0
M  END
> <s_m_entry_id>
32

> <s_m_entry_name>
29-GlideSP.1

> <s_m_Source_Path>
C:\Users\maila\Downloads\mgr\Dynamika_dlaRoksany\6joe

> <s_m_Source_File>
29-GlideSP.mol2

> <i_m_Source_File_Index>
1

$$$$
