3_patrmd
                    3D
 Schrodinger Suite 2021-1.
 42 46  0  0  1  0            999 V2000
  -35.7169   23.5683  -10.0342 N   0  0  0  0  0  0
  -35.1704   23.7876  -11.2668 C   0  0  0  0  0  0
  -33.8945   23.3380  -11.6221 C   0  0  0  0  0  0
  -33.0666   22.6057  -10.6785 C   0  0  0  0  0  0
  -33.7265   22.4914   -9.4820 N   0  0  0  0  0  0
  -34.9925   22.9421   -9.1625 C   0  0  0  0  0  0
  -33.4663   23.7436  -13.2419 S   0  0  0  0  0  0
  -34.9820   24.5416  -13.4548 C   0  0  0  0  0  0
  -35.7772   24.4899  -12.3160 C   0  0  0  0  0  0
  -31.9443   22.1425  -10.8500 O   0  0  0  0  0  0
  -35.4722   22.7812   -7.7312 C   0  0  0  0  0  0
  -35.6388   24.0706   -7.1476 O   0  0  0  0  0  0
  -35.0784   24.4407   -5.9808 C   0  0  0  0  0  0
  -35.2806   25.9038   -5.6671 C   0  0  0  0  0  0
  -34.3190   26.4905   -4.8323 C   0  0  0  0  0  0
  -34.4159   27.8212   -4.4494 C   0  0  0  0  0  0
  -35.4190   28.6245   -4.8655 N   0  0  0  0  0  0
  -36.3699   28.1160   -5.6873 C   0  0  0  0  0  0
  -36.3673   26.7484   -6.1263 C   0  0  0  0  0  0
  -37.3795   29.0092   -6.1171 C   0  0  0  0  0  0
  -38.3796   28.5736   -6.9754 C   0  0  0  0  0  0
  -38.4068   27.2558   -7.4055 C   0  0  0  0  0  0
  -37.4411   26.3457   -6.9851 C   0  0  0  0  0  0
  -33.3699   28.4691   -3.5986 C   0  0  0  0  0  0
  -32.3644   27.9796   -2.7683 C   0  0  0  0  0  0
  -31.6730   29.0824   -2.2601 C   0  0  0  0  0  0
  -32.2663   30.2014   -2.8177 C   0  0  0  0  0  0
  -33.2852   29.8300   -3.6327 O   0  0  0  0  0  0
  -34.3845   23.6852   -5.2905 O   0  0  0  0  0  0
  -33.1848   22.0489   -8.7542 H   0  0  0  0  0  0
  -35.2059   24.9950  -14.4094 H   0  0  0  0  0  0
  -36.7554   24.9393  -12.2602 H   0  0  0  0  0  0
  -34.7863   22.1502   -7.1639 H   0  0  0  0  0  0
  -36.4379   22.2771   -7.7222 H   0  0  0  0  0  0
  -33.4674   25.9259   -4.4869 H   0  0  0  0  0  0
  -37.3657   30.0335   -5.7671 H   0  0  0  0  0  0
  -39.1476   29.2628   -7.2972 H   0  0  0  0  0  0
  -39.2070   26.9266   -8.0497 H   0  0  0  0  0  0
  -37.5455   25.3313   -7.3274 H   0  0  0  0  0  0
  -32.1568   26.9426   -2.5539 H   0  0  0  0  0  0
  -30.8389   29.0674   -1.5717 H   0  0  0  0  0  0
  -32.0985   31.2654   -2.7238 H   0  0  0  0  0  0
  1  2  1  0  0  0
  1  6  2  0  0  0
  2  3  2  0  0  0
  2  9  1  0  0  0
  3  4  1  0  0  0
  3  7  1  0  0  0
  4  5  1  0  0  0
  4 10  2  0  0  0
  5  6  1  0  0  0
  5 30  1  0  0  0
  6 11  1  0  0  0
  7  8  1  0  0  0
  8  9  2  0  0  0
  8 31  1  0  0  0
  9 32  1  0  0  0
 11 12  1  0  0  0
 11 33  1  0  0  0
 11 34  1  0  0  0
 12 13  1  0  0  0
 13 14  1  0  0  0
 13 29  2  0  0  0
 14 19  2  0  0  0
 14 15  1  0  0  0
 15 16  2  0  0  0
 15 35  1  0  0  0
 16 17  1  0  0  0
 16 24  1  0  0  0
 17 18  2  0  0  0
 18 19  1  0  0  0
 18 20  1  0  0  0
 19 23  1  0  0  0
 20 21  2  0  0  0
 20 36  1  0  0  0
 21 22  1  0  0  0
 21 37  1  0  0  0
 22 23  2  0  0  0
 22 38  1  0  0  0
 23 39  1  0  0  0
 24 28  1  0  0  0
 24 25  2  0  0  0
 25 26  1  0  0  0
 25 40  1  0  0  0
 26 27  2  0  0  0
 26 41  1  0  0  0
 27 28  1  0  0  0
 27 42  1  0  0  0
M  END
> <s_m_entry_id>
21

> <s_m_entry_name>
3-GlideXP.1

> <s_m_Source_Path>
C:\Users\maila\Downloads\mgr\Dynamika_dlaRoksany\6joe

> <s_m_Source_File>
3-GlideXP.mol2

> <i_m_Source_File_Index>
1

$$$$
