33-patrmd
                    3D
 Schrodinger Suite 2021-1.
 54 58  0  0  1  0            999 V2000
  -34.7463   24.1426  -12.3079 C   0  0  0  0  0  0
  -33.5561   23.6672  -12.8520 C   0  0  0  0  0  0
  -32.6670   22.8868  -12.1149 C   0  0  0  0  0  0
  -32.9372   22.5430  -10.7921 C   0  0  0  0  0  0
  -34.1164   23.0105  -10.1961 C   0  0  0  0  0  0
  -35.0018   23.8169  -10.9725 C   0  0  0  0  0  0
  -36.0314   24.1823  -10.1371 N   0  0  0  0  0  0
  -35.8666   23.6363   -8.8862 C   0  0  0  0  0  0
  -34.6899   22.9042   -8.8879 C   0  0  0  0  0  0
  -36.6915   23.9986   -7.7860 C   0  0  0  0  0  0
  -37.6907   23.3427   -7.5006 O   0  0  0  0  0  0
  -36.2967   25.1334   -7.1767 N   0  0  0  0  0  0
  -37.0649   25.8474   -6.1501 C   0  0  0  0  0  0
  -37.3816   27.3266   -6.4912 C   0  0  0  0  0  0
  -36.1514   28.2449   -6.3652 C   0  0  0  0  0  0
  -36.4130   29.6668   -6.9109 C   0  0  0  0  0  0
  -37.0546   29.6627   -8.2338 N   0  0  0  0  0  0
  -38.3086   28.9134   -8.2730 C   0  0  0  0  0  0
  -38.0707   27.4536   -7.8684 C   0  0  0  0  0  0
  -36.5868   30.3522   -9.3005 C   0  0  0  0  0  0
  -36.3919   30.0514  -10.6391 C   0  0  0  0  0  0
  -35.8437   31.2006  -11.2226 C   0  0  0  0  0  0
  -35.7164   32.1450  -10.3257 N   0  0  0  0  0  0
  -36.2017   31.6537   -9.1918 N   0  0  0  0  0  0
  -35.4342   31.4612  -12.6280 C   0  0  0  0  0  0
  -35.8909   32.6189  -13.2730 C   0  0  0  0  0  0
  -35.4704   32.8735  -14.5779 C   0  0  0  0  0  0
  -34.6237   32.0537  -15.2498 N   0  0  0  0  0  0
  -34.1717   30.9445  -14.6105 C   0  0  0  0  0  0
  -34.5641   30.6061  -13.3146 C   0  0  0  0  0  0
  -35.4228   24.7534  -12.8903 H   0  0  0  0  0  0
  -33.3277   23.9073  -13.8813 H   0  0  0  0  0  0
  -31.7579   22.5274  -12.5750 H   0  0  0  0  0  0
  -32.2408   21.9383  -10.2330 H   0  0  0  0  0  0
  -36.7935   24.8049  -10.3474 H   0  0  0  0  0  0
  -34.2738   22.3900   -8.0308 H   0  0  0  0  0  0
  -35.3937   25.5168   -7.4170 H   0  0  0  0  0  0
  -36.5648   25.7609   -5.1848 H   0  0  0  0  0  0
  -38.0153   25.3431   -6.0498 H   0  0  0  0  0  0
  -38.0830   27.7405   -5.7587 H   0  0  0  0  0  0
  -35.8637   28.3211   -5.3159 H   0  0  0  0  0  0
  -35.2881   27.7992   -6.8498 H   0  0  0  0  0  0
  -35.4647   30.2044   -6.9620 H   0  0  0  0  0  0
  -37.0364   30.2471   -6.2271 H   0  0  0  0  0  0
  -38.7267   28.9459   -9.2789 H   0  0  0  0  0  0
  -39.0405   29.4073   -7.6313 H   0  0  0  0  0  0
  -39.0211   26.9198   -7.8571 H   0  0  0  0  0  0
  -37.4674   26.9803   -8.6437 H   0  0  0  0  0  0
  -36.6042   29.1140  -11.1300 H   0  0  0  0  0  0
  -36.2562   32.2031   -8.3480 H   0  0  0  0  0  0
  -36.5473   33.3105  -12.7623 H   0  0  0  0  0  0
  -35.7995   33.7593  -15.1021 H   0  0  0  0  0  0
  -33.4739   30.3250  -15.1579 H   0  0  0  0  0  0
  -34.1665   29.7195  -12.8492 H   0  0  0  0  0  0
  1  2  1  0  0  0
  1  6  2  0  0  0
  1 31  1  0  0  0
  2  3  2  0  0  0
  2 32  1  0  0  0
  3  4  1  0  0  0
  3 33  1  0  0  0
  4  5  2  0  0  0
  4 34  1  0  0  0
  5  6  1  0  0  0
  5  9  1  0  0  0
  6  7  1  0  0  0
  7  8  1  0  0  0
  7 35  1  0  0  0
  8  9  2  0  0  0
  8 10  1  0  0  0
  9 36  1  0  0  0
 10 11  2  0  0  0
 10 12  1  0  0  0
 12 13  1  0  0  0
 12 37  1  0  0  0
 13 14  1  0  0  0
 13 38  1  0  0  0
 13 39  1  0  0  0
 14 19  1  0  0  0
 14 15  1  0  0  0
 14 40  1  0  0  0
 15 16  1  0  0  0
 15 41  1  0  0  0
 15 42  1  0  0  0
 16 17  1  0  0  0
 16 43  1  0  0  0
 16 44  1  0  0  0
 17 18  1  0  0  0
 17 20  1  0  0  0
 18 19  1  0  0  0
 18 45  1  0  0  0
 18 46  1  0  0  0
 19 47  1  0  0  0
 19 48  1  0  0  0
 20 24  1  0  0  0
 20 21  2  0  0  0
 21 22  1  0  0  0
 21 49  1  0  0  0
 22 23  2  0  0  0
 22 25  1  0  0  0
 23 24  1  0  0  0
 24 50  1  0  0  0
 25 30  2  0  0  0
 25 26  1  0  0  0
 26 27  2  0  0  0
 26 51  1  0  0  0
 27 28  1  0  0  0
 27 52  1  0  0  0
 28 29  2  0  0  0
 29 30  1  0  0  0
 29 53  1  0  0  0
 30 54  1  0  0  0
M  END
> <s_m_entry_id>
33

> <s_m_entry_name>
33-GlideSP.1

> <s_m_Source_Path>
C:\Users\maila\Downloads\mgr\Dynamika_dlaRoksany\6joe

> <s_m_Source_File>
33-GlideSP.mol2

> <i_m_Source_File_Index>
1

$$$$
