38_patrmd
                    3D
 Schrodinger Suite 2021-1.
 24 26  0  0  1  0            999 V2000
  -35.9939   24.1120  -10.9022 N   0  0  0  0  0  0
  -35.1710   23.0232  -10.7005 C   0  0  0  0  0  0
  -34.9170   22.5829   -9.5172 N   0  0  0  0  0  0
  -35.4472   23.2931   -8.4784 C   0  0  0  0  0  0
  -36.2665   24.4264   -8.6004 C   0  0  0  0  0  0
  -36.6491   24.8520   -9.9551 C   0  0  0  0  0  0
  -36.5212   25.0404   -7.3509 C   0  0  0  0  0  0
  -35.9603   24.3057   -6.3092 C   0  0  0  0  0  0
  -35.0403   22.9408   -6.8375 S   0  0  0  0  0  0
  -37.4166   25.7409  -10.3037 O   0  0  0  0  0  0
  -37.1918   26.3077   -7.1127 C   0  0  0  0  0  0
  -36.4837   27.4889   -6.0494 S   0  0  0  0  0  0
  -37.7556   28.6372   -6.3417 C   0  0  0  0  0  0
  -38.6673   28.0988   -7.2416 C   0  0  0  0  0  0
  -38.3700   26.7976   -7.6495 C   0  0  0  0  0  0
  -37.7682   29.9789   -5.6553 C   0  0  0  0  0  0
  -36.1655   24.4110  -11.8506 H   0  0  0  0  0  0
  -34.7579   22.5425  -11.5829 H   0  0  0  0  0  0
  -36.0059   24.5370   -5.2545 H   0  0  0  0  0  0
  -39.5455   28.6329   -7.5728 H   0  0  0  0  0  0
  -38.9907   26.2340   -8.3304 H   0  0  0  0  0  0
  -37.8572   29.8760   -4.5734 H   0  0  0  0  0  0
  -38.6000   30.6026   -5.9830 H   0  0  0  0  0  0
  -36.8554   30.5424   -5.8472 H   0  0  0  0  0  0
  1  2  1  0  0  0
  1  6  1  0  0  0
  1 17  1  0  0  0
  2  3  2  0  0  0
  2 18  1  0  0  0
  3  4  1  0  0  0
  4  5  2  0  0  0
  4  9  1  0  0  0
  5  6  1  0  0  0
  5  7  1  0  0  0
  6 10  2  0  0  0
  7  8  2  0  0  0
  7 11  1  0  0  0
  8  9  1  0  0  0
  8 19  1  0  0  0
 11 15  2  0  0  0
 11 12  1  0  0  0
 12 13  1  0  0  0
 13 14  2  0  0  0
 13 16  1  0  0  0
 14 15  1  0  0  0
 14 20  1  0  0  0
 15 21  1  0  0  0
 16 22  1  0  0  0
 16 23  1  0  0  0
 16 24  1  0  0  0
M  END
> <s_m_entry_id>
34

> <s_m_entry_name>
38-GlideSP.1

> <s_m_Source_Path>
C:\Users\maila\Downloads\mgr\Dynamika_dlaRoksany\6joe

> <s_m_Source_File>
38-GlideSP.mol2

> <i_m_Source_File_Index>
1

$$$$
