43-patrmd
                    3D
 Schrodinger Suite 2021-1.
 38 39  0  0  1  0            999 V2000
  -37.5273   28.9438   -4.0168 S   0  0  0  0  0  0
  -37.9419   28.5564   -5.6607 C   0  0  0  0  0  0
  -39.1753   29.1087   -6.0137 C   0  0  0  0  0  0
  -39.8044   29.7655   -4.9541 C   0  0  0  0  0  0
  -39.0528   29.7429   -3.7916 C   0  0  0  0  0  0
  -39.4709   30.4078   -2.2684 Cl  0  0  0  0  0  0
  -37.0648   27.6952   -6.4371 C   0  0  0  0  0  0
  -37.6832   27.0204   -7.6658 C   0  0  0  0  0  0
  -35.8908   27.4740   -6.1288 O   0  0  0  0  0  0
  -37.2171   25.6800   -7.8157 O   0  0  0  0  0  0
  -37.1903   25.1146   -9.0350 C   0  0  0  0  0  0
  -36.7787   23.6431   -9.0049 C   0  0  0  0  0  0
  -37.4665   25.6828  -10.0903 O   0  0  0  0  0  0
  -35.5557   23.3739   -9.8829 C   0  0  0  0  0  0
  -35.5203   23.6720  -11.2566 C   0  0  0  0  0  0
  -34.3786   23.3946  -12.0257 C   0  0  0  0  0  0
  -33.2701   22.8122  -11.4119 C   0  0  0  0  0  0
  -33.3117   22.5145  -10.0425 C   0  0  0  0  0  0
  -34.4440   22.7847   -9.2885 C   0  0  0  0  0  0
  -32.1910   22.5424  -12.2252 O   0  0  0  0  0  0
  -31.0608   21.9232  -11.6530 C   0  0  0  0  0  0
  -34.2637   23.6208  -13.3841 O   0  0  0  0  0  0
  -35.1656   24.4992  -14.0270 C   0  0  0  0  0  0
  -39.6309   29.0090   -6.9878 H   0  0  0  0  0  0
  -40.7773   30.2285   -5.0237 H   0  0  0  0  0  0
  -38.7666   26.9747   -7.5603 H   0  0  0  0  0  0
  -37.4664   27.6406   -8.5371 H   0  0  0  0  0  0
  -36.5748   23.3505   -7.9743 H   0  0  0  0  0  0
  -37.6241   23.0418   -9.3314 H   0  0  0  0  0  0
  -36.3908   24.1011  -11.7262 H   0  0  0  0  0  0
  -32.4765   22.0579   -9.5401 H   0  0  0  0  0  0
  -34.4481   22.5354   -8.2370 H   0  0  0  0  0  0
  -30.2838   21.7981  -12.4079 H   0  0  0  0  0  0
  -31.2966   20.9428  -11.2495 H   0  0  0  0  0  0
  -30.6669   22.5401  -10.8505 H   0  0  0  0  0  0
  -34.9182   24.5428  -15.0871 H   0  0  0  0  0  0
  -35.0664   25.5044  -13.6154 H   0  0  0  0  0  0
  -36.1962   24.1514  -13.9519 H   0  0  0  0  0  0
  1  2  1  0  0  0
  1  5  1  0  0  0
  2  3  2  0  0  0
  2  7  1  0  0  0
  3  4  1  0  0  0
  3 24  1  0  0  0
  4  5  2  0  0  0
  4 25  1  0  0  0
  5  6  1  0  0  0
  7  8  1  0  0  0
  7  9  2  0  0  0
  8 10  1  0  0  0
  8 26  1  0  0  0
  8 27  1  0  0  0
 10 11  1  0  0  0
 11 12  1  0  0  0
 11 13  2  0  0  0
 12 14  1  0  0  0
 12 28  1  0  0  0
 12 29  1  0  0  0
 14 19  2  0  0  0
 14 15  1  0  0  0
 15 16  2  0  0  0
 15 30  1  0  0  0
 16 17  1  0  0  0
 16 22  1  0  0  0
 17 18  2  0  0  0
 17 20  1  0  0  0
 18 19  1  0  0  0
 18 31  1  0  0  0
 19 32  1  0  0  0
 20 21  1  0  0  0
 21 33  1  0  0  0
 21 34  1  0  0  0
 21 35  1  0  0  0
 22 23  1  0  0  0
 23 36  1  0  0  0
 23 37  1  0  0  0
 23 38  1  0  0  0
M  END
> <s_m_entry_id>
35

> <s_m_entry_name>
43-GlideSP.1

> <s_m_Source_Path>
C:\Users\maila\Downloads\mgr\Dynamika_dlaRoksany\6joe

> <s_m_Source_File>
43-GlideSP.mol2

> <i_m_Source_File_Index>
1

$$$$
