45-patrmd
                    3D
 Schrodinger Suite 2021-1.
 27 28  0  0  1  0            999 V2000
  -36.7530   23.6661   -7.4828 S   0  0  0  0  0  0
  -36.8149   25.1292   -6.5411 C   0  0  0  0  0  0
  -35.5673   25.3827   -5.9694 C   0  0  0  0  0  0
  -34.6587   24.4544   -6.2213 N   0  0  0  0  0  0
  -35.0878   23.5206   -7.0215 C   0  0  0  0  0  0
  -35.2135   26.5716   -5.1935 C   0  0  0  0  0  0
  -34.2665   22.5459   -7.5113 N   0  0  0  0  0  0
  -34.2284   22.1426   -8.9064 C   0  0  0  0  0  0
  -36.0318   27.5536   -4.6474 C   0  0  0  0  0  0
  -35.3284   28.5418   -3.9471 C   0  0  0  0  0  0
  -33.9468   28.3566   -3.9196 C   0  0  0  0  0  0
  -33.5508   26.9424   -4.8494 S   0  0  0  0  0  0
  -32.8514   29.1771   -3.2493 C   0  0  0  0  0  0
  -32.2666   28.5425   -1.9761 C   0  0  0  0  0  0
  -31.4665   29.2987   -1.2278 N   0  0  0  0  0  0
  -32.5174   27.3858   -1.6506 O   0  0  0  0  0  0
  -37.7154   25.7229   -6.4799 H   0  0  0  0  0  0
  -33.3455   22.4932   -7.0910 H   0  0  0  0  0  0
  -33.4651   21.3783   -9.0530 H   0  0  0  0  0  0
  -33.9721   22.9914   -9.5420 H   0  0  0  0  0  0
  -35.1912   21.7437   -9.2305 H   0  0  0  0  0  0
  -37.1091   27.5488   -4.7373 H   0  0  0  0  0  0
  -35.8212   29.3678   -3.4538 H   0  0  0  0  0  0
  -33.2164   30.1747   -3.0016 H   0  0  0  0  0  0
  -32.0196   29.3293   -3.9362 H   0  0  0  0  0  0
  -31.0866   28.8954   -0.3827 H   0  0  0  0  0  0
  -31.1686   30.2171   -1.5168 H   0  0  0  0  0  0
  1  2  1  0  0  0
  1  5  1  0  0  0
  2  3  2  0  0  0
  2 17  1  0  0  0
  3  4  1  0  0  0
  3  6  1  0  0  0
  4  5  2  0  0  0
  5  7  1  0  0  0
  6 12  1  0  0  0
  6  9  2  0  0  0
  7  8  1  0  0  0
  7 18  1  0  0  0
  8 19  1  0  0  0
  8 20  1  0  0  0
  8 21  1  0  0  0
  9 10  1  0  0  0
  9 22  1  0  0  0
 10 11  2  0  0  0
 10 23  1  0  0  0
 11 12  1  0  0  0
 11 13  1  0  0  0
 13 14  1  0  0  0
 13 24  1  0  0  0
 13 25  1  0  0  0
 14 15  1  0  0  0
 14 16  2  0  0  0
 15 26  1  0  0  0
 15 27  1  0  0  0
M  END
> <s_m_entry_id>
36

> <s_m_entry_name>
45-GlideSP.1

> <s_m_Source_Path>
C:\Users\maila\Downloads\mgr\Dynamika_dlaRoksany\6joe

> <s_m_Source_File>
45-GlideSP.mol2

> <i_m_Source_File_Index>
1

$$$$
