48-patrmd
                    3D
 Schrodinger Suite 2021-1.
 28 30  0  0  1  0            999 V2000
  -36.6412   24.6561   -9.6711 N   0  0  0  0  0  0
  -36.0829   23.6022   -8.9324 C   0  0  0  0  0  0
  -35.3662   22.8094   -9.7625 N   0  0  0  0  0  0
  -35.4678   23.4055  -11.0098 N   0  0  0  0  0  0
  -36.2671   24.5424  -10.9665 N   0  0  0  0  0  0
  -37.3920   25.6718   -9.2135 N   0  0  0  0  0  0
  -37.5503   25.6790   -7.8611 C   0  0  0  0  0  0
  -37.0664   24.6635   -7.0240 C   0  0  0  0  0  0
  -36.3348   23.5941   -7.5523 C   0  0  0  0  0  0
  -38.2010   26.7596   -7.2496 N   0  0  0  0  0  0
  -38.4611   28.0835   -7.6475 C   0  0  0  0  0  0
  -39.3371   28.8238   -6.8534 C   0  0  0  0  0  0
  -39.6509   30.1384   -7.1827 C   0  0  0  0  0  0
  -39.0704   30.7434   -8.3022 C   0  0  0  0  0  0
  -38.1685   30.0117   -9.0859 C   0  0  0  0  0  0
  -37.8664   28.6908   -8.7601 C   0  0  0  0  0  0
  -39.4412   32.1613   -8.6528 C   0  0  0  0  0  0
  -38.4646   32.9425   -9.1123 N   0  0  0  0  0  0
  -40.5877   32.5755   -8.4968 O   0  0  0  0  0  0
  -37.2309   24.7145   -5.9564 H   0  0  0  0  0  0
  -35.9380   22.8162   -6.9152 H   0  0  0  0  0  0
  -38.5533   26.5524   -6.3195 H   0  0  0  0  0  0
  -39.7962   28.3772   -5.9824 H   0  0  0  0  0  0
  -40.3462   30.6827   -6.5581 H   0  0  0  0  0  0
  -37.7075   30.4507   -9.9598 H   0  0  0  0  0  0
  -37.1711   28.1586   -9.3879 H   0  0  0  0  0  0
  -38.6671   33.9215   -9.3155 H   0  0  0  0  0  0
  -37.5114   32.6241   -9.1468 H   0  0  0  0  0  0
  1  2  1  0  0  0
  1  5  1  0  0  0
  1  6  1  0  0  0
  2  3  2  0  0  0
  2  9  1  0  0  0
  3  4  1  0  0  0
  4  5  2  0  0  0
  6  7  2  0  0  0
  7  8  1  0  0  0
  7 10  1  0  0  0
  8  9  2  0  0  0
  8 20  1  0  0  0
  9 21  1  0  0  0
 10 11  1  0  0  0
 10 22  1  0  0  0
 11 16  2  0  0  0
 11 12  1  0  0  0
 12 13  2  0  0  0
 12 23  1  0  0  0
 13 14  1  0  0  0
 13 24  1  0  0  0
 14 15  2  0  0  0
 14 17  1  0  0  0
 15 16  1  0  0  0
 15 25  1  0  0  0
 16 26  1  0  0  0
 17 18  1  0  0  0
 17 19  2  0  0  0
 18 27  1  0  0  0
 18 28  1  0  0  0
M  END
> <s_m_entry_id>
37

> <s_m_entry_name>
48-GlideSP.1

> <s_m_Source_Path>
C:\Users\maila\Downloads\mgr\Dynamika_dlaRoksany\6joe

> <s_m_Source_File>
48-GlideSP.mol2

> <i_m_Source_File_Index>
1

$$$$
