50_patrmd
                    3D
 Schrodinger Suite 2021-1.
 52 56  0  0  1  0            999 V2000
  -36.4317   25.5985   -6.1720 C   0  0  0  0  0  0
  -35.6160   24.4114   -6.3458 C   0  0  0  0  0  0
  -35.5593   23.8150   -7.5464 C   0  0  0  0  0  0
  -36.2665   24.2603   -8.6274 N   0  0  0  0  0  0
  -37.1022   25.3426   -8.5529 C   0  0  0  0  0  0
  -37.1029   25.9989   -7.3212 N   0  0  0  0  0  0
  -35.9128   23.5797   -9.8684 C   0  0  0  0  0  0
  -34.5832   22.9348   -9.5151 C   0  0  0  0  0  0
  -34.7080   22.6597   -8.0258 C   0  0  0  0  0  0
  -37.7410   25.6994   -9.5473 O   0  0  0  0  0  0
  -36.4735   26.1740   -5.0829 O   0  0  0  0  0  0
  -37.9556   27.2359   -7.2343 C   0  0  0  0  0  0
  -34.8704   23.8693   -5.2661 C   0  0  0  0  0  0
  -34.2664   23.3425   -4.4375 N   0  0  0  0  0  0
  -37.2069   28.5671   -6.9452 C   0  0  0  0  0  0
  -38.0242   29.7714   -6.8376 C   0  0  0  0  0  0
  -35.9803   28.6175   -6.8495 O   0  0  0  0  0  0
  -38.9188   30.0357   -5.7463 C   0  0  0  0  0  0
  -39.5242   31.2993   -5.9939 C   0  0  0  0  0  0
  -38.9616   31.7998   -7.1534 N   0  0  0  0  0  0
  -38.1115   30.8563   -7.7188 C   0  0  0  0  0  0
  -39.2720   29.3428   -4.5760 C   0  0  0  0  0  0
  -40.2428   29.8777   -3.7346 C   0  0  0  0  0  0
  -40.8392   31.1019   -4.0098 C   0  0  0  0  0  0
  -40.4874   31.8474   -5.1328 C   0  0  0  0  0  0
  -39.2773   33.1193   -7.6956 C   0  0  0  0  0  0
  -37.4530   31.0854   -9.0470 C   0  0  0  0  0  0
  -36.0692   30.9673   -9.1783 C   0  0  0  0  0  0
  -35.4505   31.2428  -10.3948 C   0  0  0  0  0  0
  -36.2174   31.6329  -11.4884 C   0  0  0  0  0  0
  -37.6011   31.7413  -11.3749 C   0  0  0  0  0  0
  -38.2180   31.4557  -10.1599 C   0  0  0  0  0  0
  -36.6644   22.8159  -10.0495 H   0  0  0  0  0  0
  -35.8560   24.2476  -10.7298 H   0  0  0  0  0  0
  -34.3944   22.0262  -10.0861 H   0  0  0  0  0  0
  -33.7577   23.6208   -9.7139 H   0  0  0  0  0  0
  -33.7376   22.5791   -7.5294 H   0  0  0  0  0  0
  -35.2492   21.7424   -7.8380 H   0  0  0  0  0  0
  -38.5405   27.4004   -8.1388 H   0  0  0  0  0  0
  -38.6964   27.0849   -6.4496 H   0  0  0  0  0  0
  -38.7953   28.4111   -4.3235 H   0  0  0  0  0  0
  -40.5385   29.3381   -2.8494 H   0  0  0  0  0  0
  -41.5795   31.4857   -3.3231 H   0  0  0  0  0  0
  -40.9421   32.8094   -5.3195 H   0  0  0  0  0  0
  -38.4607   33.4913   -8.3164 H   0  0  0  0  0  0
  -39.4121   33.8337   -6.8823 H   0  0  0  0  0  0
  -40.1917   33.0678   -8.2861 H   0  0  0  0  0  0
  -35.4664   30.6883   -8.3274 H   0  0  0  0  0  0
  -34.3763   31.1648  -10.4815 H   0  0  0  0  0  0
  -35.7362   31.8608  -12.4276 H   0  0  0  0  0  0
  -38.1926   32.0526  -12.2231 H   0  0  0  0  0  0
  -39.2905   31.5523  -10.0780 H   0  0  0  0  0  0
  1  2  1  0  0  0
  1  6  1  0  0  0
  1 11  2  0  0  0
  2  3  2  0  0  0
  2 13  1  0  0  0
  3  4  1  0  0  0
  3  9  1  0  0  0
  4  5  1  0  0  0
  4  7  1  0  0  0
  5  6  1  0  0  0
  5 10  2  0  0  0
  6 12  1  0  0  0
  7  8  1  0  0  0
  7 33  1  0  0  0
  7 34  1  0  0  0
  8  9  1  0  0  0
  8 35  1  0  0  0
  8 36  1  0  0  0
  9 37  1  0  0  0
  9 38  1  0  0  0
 12 15  1  0  0  0
 12 39  1  0  0  0
 12 40  1  0  0  0
 13 14  3  0  0  0
 15 16  1  0  0  0
 15 17  2  0  0  0
 16 21  2  0  0  0
 16 18  1  0  0  0
 18 19  2  0  0  0
 18 22  1  0  0  0
 19 20  1  0  0  0
 19 25  1  0  0  0
 20 21  1  0  0  0
 20 26  1  0  0  0
 21 27  1  0  0  0
 22 23  2  0  0  0
 22 41  1  0  0  0
 23 24  1  0  0  0
 23 42  1  0  0  0
 24 25  2  0  0  0
 24 43  1  0  0  0
 25 44  1  0  0  0
 26 45  1  0  0  0
 26 46  1  0  0  0
 26 47  1  0  0  0
 27 32  2  0  0  0
 27 28  1  0  0  0
 28 29  2  0  0  0
 28 48  1  0  0  0
 29 30  1  0  0  0
 29 49  1  0  0  0
 30 31  2  0  0  0
 30 50  1  0  0  0
 31 32  1  0  0  0
 31 51  1  0  0  0
 32 52  1  0  0  0
M  END
> <s_m_entry_id>
38

> <s_m_entry_name>
50-GlideSP.1

> <s_m_Source_Path>
C:\Users\maila\Downloads\mgr\Dynamika_dlaRoksany\6joe

> <s_m_Source_File>
50-GlideSP.mol2

> <i_m_Source_File_Index>
1

$$$$
