53_patrmd
                    3D
 Schrodinger Suite 2021-1.
 48 50  0  0  1  0            999 V2000
  -35.6592   28.5918   -4.7797 S   0  0  0  0  0  0
  -34.6700   29.8119   -4.0383 C   0  0  0  0  0  0
  -33.4488   29.2619   -3.6491 C   0  0  0  0  0  0
  -33.3138   27.9691   -3.9108 N   0  0  0  0  0  0
  -34.3643   27.4532   -4.5010 C   0  0  0  0  0  0
  -32.2959   29.9757   -2.9487 C   0  0  0  0  0  0
  -31.8788   29.3725   -1.5942 C   0  0  0  0  0  0
  -31.7102   30.0912   -0.6093 O   0  0  0  0  0  0
  -31.7278   28.0452   -1.5356 N   0  0  0  0  0  0
  -34.3790   26.1049   -4.8452 N   0  0  0  0  0  0
  -35.3414   25.4001   -5.4844 C   0  0  0  0  0  0
  -35.0932   23.8847   -5.5841 C   0  0  0  0  0  0
  -36.1158   23.1512   -6.4835 C   0  0  0  0  0  0
  -36.3609   25.8730   -5.9904 O   0  0  0  0  0  0
  -36.0704   23.6341   -7.9254 C   0  0  0  0  0  0
  -35.2087   23.2090   -8.9393 C   0  0  0  0  0  0
  -35.5484   23.9566  -10.0505 N   0  0  0  0  0  0
  -36.5559   24.8004   -9.7936 N   0  0  0  0  0  0
  -36.8711   24.6231   -8.5322 C   0  0  0  0  0  0
  -34.1170   22.1519   -8.9454 C   0  0  0  0  0  0
  -37.9894   25.4569   -7.9401 C   0  0  0  0  0  0
  -34.9814   23.9451  -11.3458 C   0  0  0  0  0  0
  -35.7753   24.2562  -12.4578 C   0  0  0  0  0  0
  -35.2150   24.2521  -13.7329 C   0  0  0  0  0  0
  -33.8659   23.9433  -13.8945 C   0  0  0  0  0  0
  -33.0691   23.6397  -12.7925 C   0  0  0  0  0  0
  -33.6252   23.6412  -11.5153 C   0  0  0  0  0  0
  -35.0194   30.8281   -3.9294 H   0  0  0  0  0  0
  -32.5457   31.0310   -2.8211 H   0  0  0  0  0  0
  -31.4080   29.9749   -3.5825 H   0  0  0  0  0  0
  -31.4614   27.5994   -0.6693 H   0  0  0  0  0  0
  -31.8789   27.4774   -2.3570 H   0  0  0  0  0  0
  -33.5515   25.5928   -4.5749 H   0  0  0  0  0  0
  -34.0854   23.7399   -5.9762 H   0  0  0  0  0  0
  -35.0959   23.4374   -4.5876 H   0  0  0  0  0  0
  -35.9344   22.0758   -6.4462 H   0  0  0  0  0  0
  -37.1235   23.2802   -6.0855 H   0  0  0  0  0  0
  -33.1208   22.5925   -8.9837 H   0  0  0  0  0  0
  -34.2075   21.4749   -9.7955 H   0  0  0  0  0  0
  -34.1442   21.5273   -8.0528 H   0  0  0  0  0  0
  -38.9184   25.3414   -8.4997 H   0  0  0  0  0  0
  -37.7441   26.5196   -7.9449 H   0  0  0  0  0  0
  -38.2136   25.1910   -6.9074 H   0  0  0  0  0  0
  -36.8233   24.4942  -12.3423 H   0  0  0  0  0  0
  -35.8239   24.4877  -14.5934 H   0  0  0  0  0  0
  -33.4328   23.9416  -14.8840 H   0  0  0  0  0  0
  -32.0231   23.4070  -12.9278 H   0  0  0  0  0  0
  -32.9953   23.4181  -10.6664 H   0  0  0  0  0  0
  1  2  1  0  0  0
  1  5  1  0  0  0
  2  3  2  0  0  0
  2 28  1  0  0  0
  3  4  1  0  0  0
  3  6  1  0  0  0
  4  5  2  0  0  0
  5 10  1  0  0  0
  6  7  1  0  0  0
  6 29  1  0  0  0
  6 30  1  0  0  0
  7  8  2  0  0  0
  7  9  1  0  0  0
  9 31  1  0  0  0
  9 32  1  0  0  0
 10 11  1  0  0  0
 10 33  1  0  0  0
 11 12  1  0  0  0
 11 14  2  0  0  0
 12 13  1  0  0  0
 12 34  1  0  0  0
 12 35  1  0  0  0
 13 15  1  0  0  0
 13 36  1  0  0  0
 13 37  1  0  0  0
 15 19  1  0  0  0
 15 16  2  0  0  0
 16 17  1  0  0  0
 16 20  1  0  0  0
 17 18  1  0  0  0
 17 22  1  0  0  0
 18 19  2  0  0  0
 19 21  1  0  0  0
 20 38  1  0  0  0
 20 39  1  0  0  0
 20 40  1  0  0  0
 21 41  1  0  0  0
 21 42  1  0  0  0
 21 43  1  0  0  0
 22 27  2  0  0  0
 22 23  1  0  0  0
 23 24  2  0  0  0
 23 44  1  0  0  0
 24 25  1  0  0  0
 24 45  1  0  0  0
 25 26  2  0  0  0
 25 46  1  0  0  0
 26 27  1  0  0  0
 26 47  1  0  0  0
 27 48  1  0  0  0
M  END
> <s_m_entry_id>
39

> <s_m_entry_name>
53-GlideXP.1

> <s_m_Source_Path>
C:\Users\maila\Downloads\mgr\Dynamika_dlaRoksany\6joe

> <s_m_Source_File>
53-GlideXP.mol2

> <i_m_Source_File_Index>
1

$$$$
