57-pubii
                    3D
 Structure written by MMmdl.
 68 71  0  0  1  0            999 V2000
   45.4538  111.8142   13.4299 S   0  0  0  0  0  0
   48.0391  119.6365   16.3304 O   0  0  0  0  0  0
   46.6136  125.4558   15.0546 O   0  0  0  0  0  0
   43.8789  115.7783   15.9804 O   0  0  0  0  0  0
   45.8786  126.2788   12.5770 O   0  5  0  0  0  0
   44.7289  116.8380   13.6470 O   0  0  0  0  0  0
   49.0109  128.8587   10.2478 O   0  0  0  0  0  0
   51.0133  127.7820   11.8349 O   0  0  0  0  0  0
   48.7851  124.7784   15.1017 N   0  0  0  0  0  0
   48.9421  119.6123   18.4192 N   0  0  0  0  0  0
   44.6272  114.0245   17.2370 N   0  0  0  0  0  0
   47.0938  126.8408   12.6164 N   0  0  0  0  0  0
   45.4953  115.8350   11.7778 N   0  0  0  0  0  0
   45.8802  113.5635   11.4244 N   0  0  0  0  0  0
   50.3896  122.0922   17.1080 C   0  0  0  0  0  0
   51.2664  120.8606   16.8047 C   0  0  0  0  0  0
   49.4899  122.5053   15.9261 C   0  0  0  0  0  0
   50.4382  119.5978   16.4746 C   0  0  0  0  0  0
   48.6987  123.8039   16.1912 C   0  0  0  0  0  0
   49.0222  119.6207   17.0739 C   0  0  0  0  0  0
   47.7203  119.5135   19.2243 C   0  0  0  0  0  0
   46.9086  118.2314   19.0388 C   0  0  0  0  0  0
   45.3923  115.8993   18.7636 C   0  0  0  0  0  0
   45.7359  118.2435   18.2777 C   0  0  0  0  0  0
   47.3159  117.0515   19.6686 C   0  0  0  0  0  0
   44.5808  114.6171   18.5778 C   0  0  0  0  0  0
   47.7594  125.4980   14.5989 C   0  0  0  0  0  0
   44.9851  117.0792   18.1336 C   0  0  0  0  0  0
   46.5651  115.8872   19.5245 C   0  0  0  0  0  0
   48.1072  126.3238   13.4448 C   0  0  0  0  0  0
   44.7524  113.8940   14.8940 C   0  0  0  0  0  0
   44.3733  114.6529   16.0696 C   0  0  0  0  0  0
   45.0967  114.4115   13.6085 C   0  0  0  0  0  0
   49.4093  126.6433   13.1838 C   0  0  0  0  0  0
   45.4920  113.3890   12.7210 C   0  0  0  0  0  0
   44.9183  112.5019   14.9260 C   0  0  0  0  0  0
   45.0726  115.7996   13.0845 C   0  0  0  0  0  0
   47.4016  127.6873   11.5669 C   0  0  0  0  0  0
   49.8314  127.5202   12.0625 C   0  0  0  0  0  0
   48.6771  128.0320   11.2761 C   0  0  0  0  0  0
   45.8784  114.7736   10.9841 C   0  0  0  0  0  0
   51.0303  122.9316   17.3832 H   0  0  0  0  0  0
   49.7664  121.8853   17.9796 H   0  0  0  0  0  0
   51.9273  121.0932   15.9673 H   0  0  0  0  0  0
   51.9118  120.6680   17.6638 H   0  0  0  0  0  0
   48.7899  121.6973   15.7063 H   0  0  0  0  0  0
   50.1046  122.6270   15.0330 H   0  0  0  0  0  0
   50.3378  119.4950   15.3931 H   0  0  0  0  0  0
   50.9739  118.7099   16.8171 H   0  0  0  0  0  0
   49.0110  124.2564   17.1347 H   0  0  0  0  0  0
   47.6431  123.5606   16.3182 H   0  0  0  0  0  0
   48.0237  119.5689   20.2707 H   0  0  0  0  0  0
   47.1026  120.3987   19.0600 H   0  0  0  0  0  0
   49.7053  124.9190   14.7098 H   0  0  0  0  0  0
   49.7950  119.7513   18.9419 H   0  0  0  0  0  0
   44.9727  113.8700   19.2693 H   0  0  0  0  0  0
   43.5405  114.7620   18.8760 H   0  0  0  0  0  0
   45.4036  119.1503   17.7931 H   0  0  0  0  0  0
   48.2149  117.0321   20.2678 H   0  0  0  0  0  0
   44.0861  117.0986   17.5343 H   0  0  0  0  0  0
   46.8974  114.9804   20.0091 H   0  0  0  0  0  0
   44.7905  113.0282   17.2091 H   0  0  0  0  0  0
   50.1845  126.2622   13.8357 H   0  0  0  0  0  0
   44.7594  111.8436   15.7682 H   0  0  0  0  0  0
   46.5660  128.0552   10.9854 H   0  0  0  0  0  0
   45.5098  116.7534   11.3579 H   0  0  0  0  0  0
   46.1771  115.0023    9.9653 H   0  0  0  0  0  0
   49.8876  129.2198   10.3982 H   0  0  0  0  0  0
  1 35  1  0  0  0
  1 36  1  0  0  0
  2 20  2  0  0  0
  3 27  2  0  0  0
  4 32  2  0  0  0
  5 12  1  0  0  0
  6 37  2  0  0  0
  7 40  1  0  0  0
  7 68  1  0  0  0
  8 39  2  0  0  0
  9 19  1  0  0  0
  9 27  1  0  0  0
  9 54  1  0  0  0
 10 20  1  0  0  0
 10 21  1  0  0  0
 10 55  1  0  0  0
 11 26  1  0  0  0
 11 32  1  0  0  0
 11 62  1  0  0  0
 12 30  1  0  0  0
 12 38  1  0  0  0
 13 37  1  0  0  0
 13 41  1  0  0  0
 13 66  1  0  0  0
 14 35  1  0  0  0
 14 41  2  0  0  0
 15 16  1  0  0  0
 15 17  1  0  0  0
 15 42  1  0  0  0
 15 43  1  0  0  0
 16 18  1  0  0  0
 16 44  1  0  0  0
 16 45  1  0  0  0
 17 19  1  0  0  0
 17 46  1  0  0  0
 17 47  1  0  0  0
 18 20  1  0  0  0
 18 48  1  0  0  0
 18 49  1  0  0  0
 19 50  1  0  0  0
 19 51  1  0  0  0
 21 22  1  0  0  0
 21 52  1  0  0  0
 21 53  1  0  0  0
 22 24  2  0  0  0
 22 25  1  0  0  0
 23 26  1  0  0  0
 23 28  2  0  0  0
 23 29  1  0  0  0
 24 28  1  0  0  0
 24 58  1  0  0  0
 25 29  2  0  0  0
 25 59  1  0  0  0
 26 56  1  0  0  0
 26 57  1  0  0  0
 27 30  1  0  0  0
 28 60  1  0  0  0
 29 61  1  0  0  0
 30 34  2  0  0  0
 31 32  1  0  0  0
 31 33  1  0  0  0
 31 36  2  0  0  0
 33 35  2  0  0  0
 33 37  1  0  0  0
 34 39  1  0  0  0
 34 63  1  0  0  0
 36 64  1  0  0  0
 38 40  2  0  0  0
 38 65  1  0  0  0
 39 40  1  0  0  0
 41 67  1  0  0  0
M  CHG  1   5  -1
M  END
> <s_m_entry_id>
1252

> <s_m_entry_name>
57-pubii.1

> <s_m_Source_Path>
/home/users/mnguyen

> <s_m_Source_File>
57-pubii.sdf

> <i_m_Source_File_Index>
1

> <i_lp_mmshare_version>
37011

> <r_epik_Ionization_Penalty>
  0.0292

> <r_epik_Ionization_Penalty_Charging>
  0.0113

> <r_epik_Ionization_Penalty_Neutral>
  0.0179

> <r_epik_State_Penalty>
  0.0711

> <r_epik_Charging_Adjusted_Penalty>
0.0823235849068347

> <i_epik_Tot_Q>
-1

> <i_epik_Tot_abs_Q>
1

> <i_f3d_flags>
0

> <s_lp_Force_Field>
OPLS3

> <r_lp_Energy>
62.9985854344237

> <b_lp_Chiralities_Consistent>
1

> <s_lp_Variant>
57-pubii-1

> <s_m_source_file>
ligprep_pubii_popraione.maegz

> <i_m_source_file_index>
2

> <s_m_job_name>
glide-dock_XP_5zhn-pubii-poprawione_53-57

> <s_i_glide_gridfile>
glide-grid_5zhn

> <i_i_glide_lignum>
1

> <i_i_glide_rotatable_bonds>
16

> <r_i_docking_score>
-16.2307740816332

> <r_i_glide_ligand_efficiency>
-0.395872538576421

> <r_i_glide_ligand_efficiency_sa>
-1.36505451082355

> <r_i_glide_ligand_efficiency_ln>
-3.44341273495828

> <r_i_glide_gscore>
-16.3018740816333

> <r_i_glide_evdw>
-69.609245300293

> <r_i_glide_ecoul>
-18.5199699401855

> <r_i_glide_emodel>
-169.24769870929

> <r_i_glide_energy>
-88.1292152404785

> <r_i_glide_einternal>
10.0614051818848

> <i_i_glide_confnum>
1

> <i_i_glide_posenum>
12

> <r_i_glide_eff_state_penalty>
0.0711

> <r_glide_XP_GScore>
-16.3018740816333

> <r_glide_XP_HBond>
-3.720789839467

> <i_glide_XP_PoseRank>
1

> <PUBCHEM_COMPOUND_CID>
155518304

> <PUBCHEM_CONFORMER_RMSD>
1.8

> <PUBCHEM_CONFORMER_DIVERSEORDER>
1
116
220
78
173
185
17
4
199
83
84
200
3
201
21
68
160
69
219
178
218
111
131
205
137
117
215
186
5
56
182
80
161
9
214
46
103
195
99
79
189
194
7
145
47
67
135
10
188
118
13
138
112
177
96
212
33
73
30
81
132
53
26
139
203
209
27
146
172
190
12
141
163
108
130
175
105
2
20
183
16
165
39
51
57
74
119
197
6
144
142
217
150
153
34
86
89
168
159
213
156
45
162
95
40
143
129
31
211
14
206
193
44
151
37
187
93
157
58
174
149
166
122
204
133
23
125
59
221
181
198
184
42
36
76
202
104
128
109
48
65
107
154
140
222
61
191
87
63
77
216
29
113
155
123
106
176
192
85
92
98
101
97
88
8
126
91
19
147
38
66
158
28
148
171
207
114
15
208
72
179
71
152
136
54
127
60
82
120
100
115
121
196
124
167
52
50
41
64
11
49
70
43
170
94
24
32
169
102
62
25
90
22
110
134
18
55
164
35
180
75
210

> <PUBCHEM_MMFF94_PARTIAL_CHARGES>
52
1 -0.08
10 -0.73
11 -0.73
12 -0.22
13 -0.49
14 -0.58
18 0.06
19 0.3
2 -0.57
20 0.57
21 0.44
22 -0.14
23 -0.14
24 -0.15
25 -0.15
26 0.44
27 0.62
28 -0.15
29 -0.15
3 -0.57
30 0.11
31 -0.09
32 0.72
33 -0.09
34 -0.14
35 0.17
36 -0.11
37 0.72
38 -0.05
39 0.54
4 -0.57
40 0.09
41 0.45
5 -0.38
54 0.37
55 0.37
58 0.15
59 0.15
6 -0.57
60 0.15
61 0.15
62 0.37
63 0.15
64 0.15
65 0.15
66 0.37
67 0.06
68 0.4
69 0.45
7 -0.53
8 -0.57
9 -0.73

> <PUBCHEM_EFFECTIVE_ROTOR_COUNT>
15

> <PUBCHEM_PHARMACOPHORE_FEATURES>
16
1 10 donor
1 11 donor
1 13 donor
1 2 acceptor
1 3 acceptor
1 4 acceptor
1 5 anion
1 6 acceptor
1 7 donor
1 8 acceptor
1 9 donor
4 15 16 17 18 hydrophobe
5 1 31 33 35 36 rings
6 12 30 34 38 39 40 rings
6 13 14 33 35 37 41 rings
6 22 23 24 25 28 29 rings

> <PUBCHEM_HEAVY_ATOM_COUNT>
41

> <PUBCHEM_ATOM_DEF_STEREO_COUNT>
0

> <PUBCHEM_ATOM_UDEF_STEREO_COUNT>
0

> <PUBCHEM_BOND_DEF_STEREO_COUNT>
0

> <PUBCHEM_BOND_UDEF_STEREO_COUNT>
0

> <PUBCHEM_ISOTOPIC_ATOM_COUNT>
0

> <PUBCHEM_COMPONENT_COUNT>
1

> <PUBCHEM_CACTVS_TAUTO_COUNT>
-1

> <PUBCHEM_MMFF94_ENERGY>
71.9343

> <PUBCHEM_FEATURE_SELFOVERLAP>
81.283

> <PUBCHEM_SHAPE_FINGERPRINT>
12156800 1 16343160038615126219
12788726 201 17627769955858849695
1361 2 16536779350305088948
13615921 28 17417246679558651347
13642711 20 17243576391258272849
13761468 95 18271531892651459198
14747282 140 17331145174118570520
16067690 210 16917073282311168264
20764821 26 17906407209027750286
21792938 131 18195785575121356807
21795232 40 17901964250492408124
35225 105 16103967004699361575
4573279 79 16882763146272796994
469060 322 18267020548775839587
50150288 127 16915942851092567664
54131252 126 14150389366367846164
54131252 152 17974293420578731708
56611832 218 17685212769007592765

> <PUBCHEM_SHAPE_MULTIPOLES>
776.64
9.05
5.7
4.17
6.74
0.18
3.35
0.13
-4.11
3.55
-1.32
-4.45
1.04
-0.42

> <PUBCHEM_SHAPE_SELFOVERLAP>
1646.874

> <PUBCHEM_SHAPE_VOLUME>
432.5

> <PUBCHEM_COORDINATE_TYPE>
2
5
10

> <PUBCHEM_CONFORMER_ID>
-13877247

> <s_m_subgroup_title>
glide-dock_XP_5zhn-pubii-poprawione_53-57_pv1

> <s_m_subgroupid>
glide-dock_XP_5zhn-pubii-poprawione_53-57_pv1

> <b_m_subgroup_collapsed>
0

$$$$
