58-patrmd
                    3D
 Schrodinger Suite 2021-1.
 43 46  0  0  1  0            999 V2000
  -36.8860   26.3237   -6.7866 C   0  0  0  0  0  0
  -36.6846   27.4948   -6.0527 C   0  0  0  0  0  0
  -35.6801   27.5435   -5.0851 C   0  0  0  0  0  0
  -34.8880   26.4217   -4.8512 C   0  0  0  0  0  0
  -35.0954   25.2404   -5.5653 C   0  0  0  0  0  0
  -36.1031   25.1994   -6.5399 C   0  0  0  0  0  0
  -34.2757   24.1745   -5.2496 O   0  0  0  0  0  0
  -34.4272   22.9473   -5.9557 C   0  0  0  0  0  0
  -37.5791   28.6637   -6.3034 C   0  0  0  0  0  0
  -37.8333   29.1544   -7.4928 N   0  0  0  0  0  0
  -38.7370   30.1994   -7.3273 N   0  0  0  0  0  0
  -39.0118   30.2825   -6.0489 C   0  0  0  0  0  0
  -38.2975   29.3425   -5.3388 N   0  0  0  0  0  0
  -40.0429   31.2044   -5.4121 C   0  0  0  0  0  0
  -39.8659   31.1797   -3.8668 N   0  3  2  0  0  0
  -39.6469   29.7407   -3.3300 C   0  0  0  0  0  0
  -38.3232   29.1791   -3.8895 C   0  0  0  0  0  0
  -41.1000   31.8427   -3.1992 C   0  0  0  0  0  0
  -40.7910   32.2122   -1.7638 C   0  0  0  0  0  0
  -41.0067   31.3425   -0.7184 N   0  0  0  0  0  0
  -40.6665   31.9470    0.4660 C   0  0  0  0  0  0
  -40.2697   33.2440    0.1907 C   0  0  0  0  0  0
  -40.3419   33.4037   -1.1972 C   0  0  0  0  0  0
  -37.6680   26.2732   -7.5321 H   0  0  0  0  0  0
  -35.5164   28.4445   -4.5121 H   0  0  0  0  0  0
  -34.1103   26.4606   -4.1026 H   0  0  0  0  0  0
  -36.2973   24.3058   -7.1129 H   0  0  0  0  0  0
  -33.7243   22.2115   -5.5644 H   0  0  0  0  0  0
  -34.2138   23.0717   -7.0184 H   0  0  0  0  0  0
  -35.4336   22.5425   -5.8346 H   0  0  0  0  0  0
  -41.0545   30.8513   -5.6172 H   0  0  0  0  0  0
  -39.9421   32.2417   -5.7347 H   0  0  0  0  0  0
  -39.5960   29.7843   -2.2428 H   0  0  0  0  0  0
  -40.5158   29.1414   -3.6097 H   0  0  0  0  0  0
  -37.4666   29.6975   -3.4577 H   0  0  0  0  0  0
  -38.2327   28.1244   -3.6479 H   0  0  0  0  0  0
  -41.2883   32.7380   -3.7938 H   0  0  0  0  0  0
  -41.9407   31.1550   -3.3174 H   0  0  0  0  0  0
  -41.3567   30.3773   -0.8032 H   0  0  0  0  0  0
  -40.7611   31.4020    1.3952 H   0  0  0  0  0  0
  -39.9519   33.9857    0.9079 H   0  0  0  0  0  0
  -40.0902   34.3016   -1.7430 H   0  0  0  0  0  0
  -39.0273   31.7205   -3.6494 H   0  0  0  0  0  0
  1  2  2  0  0  0
  1  6  1  0  0  0
  1 24  1  0  0  0
  2  3  1  0  0  0
  2  9  1  0  0  0
  3  4  2  0  0  0
  3 25  1  0  0  0
  4  5  1  0  0  0
  4 26  1  0  0  0
  5  6  2  0  0  0
  5  7  1  0  0  0
  6 27  1  0  0  0
  7  8  1  0  0  0
  8 28  1  0  0  0
  8 29  1  0  0  0
  8 30  1  0  0  0
  9 10  2  0  0  0
  9 13  1  0  0  0
 10 11  1  0  0  0
 11 12  2  0  0  0
 12 13  1  0  0  0
 12 14  1  0  0  0
 13 17  1  0  0  0
 14 15  1  0  0  0
 14 31  1  0  0  0
 14 32  1  0  0  0
 15 16  1  0  0  0
 15 18  1  0  0  0
 15 43  1  0  0  0
 16 17  1  0  0  0
 16 33  1  0  0  0
 16 34  1  0  0  0
 17 35  1  0  0  0
 17 36  1  0  0  0
 18 19  1  0  0  0
 18 37  1  0  0  0
 18 38  1  0  0  0
 19 20  1  0  0  0
 19 23  2  0  0  0
 20 21  1  0  0  0
 20 39  1  0  0  0
 21 22  2  0  0  0
 21 40  1  0  0  0
 22 23  1  0  0  0
 22 41  1  0  0  0
 23 42  1  0  0  0
M  CHG  1  15   1
M  END
> <s_m_entry_id>
40

> <s_m_entry_name>
58-GlideSP.1

> <s_m_Source_Path>
C:\Users\maila\Downloads\mgr\Dynamika_dlaRoksany\6joe

> <s_m_Source_File>
58-GlideSP.mol2

> <i_m_Source_File_Index>
1

$$$$
