6-patrmd
                    3D
 Schrodinger Suite 2021-1.
 43 46  0  0  1  0            999 V2000
  -34.8270   23.7421  -10.4767 N   0  0  0  0  0  0
  -34.8185   24.0163  -11.8064 C   0  0  0  0  0  0
  -33.7800   23.6253  -12.6519 C   0  0  0  0  0  0
  -32.7036   22.9255  -12.1045 C   0  0  0  0  0  0
  -32.6952   22.6326  -10.7386 C   0  0  0  0  0  0
  -33.7827   23.0490   -9.9479 C   0  0  0  0  0  0
  -33.8226   24.0042  -14.3354 Cl  0  0  0  0  0  0
  -33.8738   22.8231   -8.5623 N   0  0  0  0  0  0
  -34.9766   22.8046   -7.7808 C   0  0  0  0  0  0
  -34.7124   23.0721   -6.2890 C   0  0  0  0  0  0
  -36.1252   22.6199   -8.1922 O   0  0  0  0  0  0
  -34.8064   24.4724   -6.0143 O   0  0  0  0  0  0
  -35.9793   25.1504   -6.1457 C   0  0  0  0  0  0
  -35.8486   26.5745   -5.7107 C   0  0  0  0  0  0
  -37.0433   24.6468   -6.5152 O   0  0  0  0  0  0
  -34.7961   26.9017   -4.8457 C   0  0  0  0  0  0
  -34.6230   28.2179   -4.4190 C   0  0  0  0  0  0
  -35.4451   29.2246   -4.8062 N   0  0  0  0  0  0
  -36.4849   28.9460   -5.6385 C   0  0  0  0  0  0
  -36.7419   27.6234   -6.1266 C   0  0  0  0  0  0
  -37.3321   30.0167   -6.0193 C   0  0  0  0  0  0
  -38.4162   29.7899   -6.8605 C   0  0  0  0  0  0
  -38.6839   28.5122   -7.3357 C   0  0  0  0  0  0
  -37.8708   27.4385   -6.9822 C   0  0  0  0  0  0
  -33.5037   28.5970   -3.5007 C   0  0  0  0  0  0
  -32.8336   29.7919   -3.2493 C   0  0  0  0  0  0
  -31.8731   29.5343   -2.2707 C   0  0  0  0  0  0
  -31.9924   28.1931   -1.9570 C   0  0  0  0  0  0
  -32.9784   27.6268   -2.6988 O   0  0  0  0  0  0
  -35.6679   24.5634  -12.1888 H   0  0  0  0  0  0
  -31.8781   22.6155  -12.7286 H   0  0  0  0  0  0
  -31.8464   22.1109  -10.3230 H   0  0  0  0  0  0
  -32.9890   22.6612   -8.1030 H   0  0  0  0  0  0
  -35.4287   22.5136   -5.6813 H   0  0  0  0  0  0
  -33.7117   22.7099   -6.0432 H   0  0  0  0  0  0
  -34.1049   26.1391   -4.5134 H   0  0  0  0  0  0
  -37.1358   31.0143   -5.6518 H   0  0  0  0  0  0
  -39.0567   30.6122   -7.1441 H   0  0  0  0  0  0
  -39.5321   28.3505   -7.9847 H   0  0  0  0  0  0
  -38.1156   26.4599   -7.3662 H   0  0  0  0  0  0
  -33.0172   30.7456   -3.7215 H   0  0  0  0  0  0
  -31.1770   30.2406   -1.8432 H   0  0  0  0  0  0
  -31.4764   27.5414   -1.2674 H   0  0  0  0  0  0
  1  2  2  0  0  0
  1  6  1  0  0  0
  2  3  1  0  0  0
  2 30  1  0  0  0
  3  4  2  0  0  0
  3  7  1  0  0  0
  4  5  1  0  0  0
  4 31  1  0  0  0
  5  6  2  0  0  0
  5 32  1  0  0  0
  6  8  1  0  0  0
  8  9  1  0  0  0
  8 33  1  0  0  0
  9 10  1  0  0  0
  9 11  2  0  0  0
 10 12  1  0  0  0
 10 34  1  0  0  0
 10 35  1  0  0  0
 12 13  1  0  0  0
 13 14  1  0  0  0
 13 15  2  0  0  0
 14 20  2  0  0  0
 14 16  1  0  0  0
 16 17  2  0  0  0
 16 36  1  0  0  0
 17 18  1  0  0  0
 17 25  1  0  0  0
 18 19  2  0  0  0
 19 20  1  0  0  0
 19 21  1  0  0  0
 20 24  1  0  0  0
 21 22  2  0  0  0
 21 37  1  0  0  0
 22 23  1  0  0  0
 22 38  1  0  0  0
 23 24  2  0  0  0
 23 39  1  0  0  0
 24 40  1  0  0  0
 25 29  1  0  0  0
 25 26  2  0  0  0
 26 27  1  0  0  0
 26 41  1  0  0  0
 27 28  2  0  0  0
 27 42  1  0  0  0
 28 29  1  0  0  0
 28 43  1  0  0  0
M  END
> <s_m_entry_id>
22

> <s_m_entry_name>
6-GlideXP.1

> <s_m_Source_Path>
C:\Users\maila\Downloads\mgr\Dynamika_dlaRoksany\6joe

> <s_m_Source_File>
6-GlideXP.mol2

> <i_m_Source_File_Index>
1

$$$$
