7_patrmd
                    3D
 Schrodinger Suite 2021-1.
 49 52  0  0  1  0            999 V2000
  -37.8810   31.5881  -11.0190 C   0  0  0  0  0  0
  -37.2762   31.8798  -12.2453 C   0  0  0  0  0  0
  -35.8907   31.7639  -12.3826 C   0  0  0  0  0  0
  -35.1169   31.3425  -11.3027 C   0  0  0  0  0  0
  -35.7250   31.0214  -10.0891 C   0  0  0  0  0  0
  -37.1113   31.1219   -9.9402 C   0  0  0  0  0  0
  -38.2664   32.4182  -13.6334 S   0  0  0  0  0  0
  -38.0675   34.1425  -13.6495 N   0  0  0  0  0  0
  -37.6390   31.8986  -14.8524 O   0  0  0  0  0  0
  -39.6758   32.1425  -13.3354 O   0  0  0  0  0  0
  -37.6390   30.7327   -8.6954 N   0  0  0  0  0  0
  -38.9053   30.3784   -8.3802 C   0  0  0  0  0  0
  -39.1366   29.8594   -6.9471 C   0  0  0  0  0  0
  -38.0406   29.0507   -6.4892 O   0  0  0  0  0  0
  -37.8744   27.7425   -6.8655 C   0  0  0  0  0  0
  -39.8630   30.4227   -9.1526 O   0  0  0  0  0  0
  -36.6664   27.0789   -6.2377 C   0  0  0  0  0  0
  -38.6461   27.1898   -7.6495 O   0  0  0  0  0  0
  -35.8446   27.8482   -5.3966 C   0  0  0  0  0  0
  -34.6956   27.3096   -4.8294 C   0  0  0  0  0  0
  -34.3145   26.0297   -5.0297 N   0  0  0  0  0  0
  -35.0859   25.2311   -5.8124 C   0  0  0  0  0  0
  -36.2856   25.6962   -6.4495 C   0  0  0  0  0  0
  -34.6459   23.8981   -6.0009 C   0  0  0  0  0  0
  -35.3773   23.0204   -6.7919 C   0  0  0  0  0  0
  -36.5473   23.4425   -7.4072 C   0  0  0  0  0  0
  -37.0023   24.7486   -7.2495 C   0  0  0  0  0  0
  -33.7669   28.1425   -4.0087 C   0  0  0  0  0  0
  -32.5718   27.8970   -3.3380 C   0  0  0  0  0  0
  -32.1031   29.1178   -2.8495 C   0  0  0  0  0  0
  -33.0240   30.0691   -3.2495 C   0  0  0  0  0  0
  -34.0461   29.4736   -3.9156 O   0  0  0  0  0  0
  -38.9484   31.7158  -10.9274 H   0  0  0  0  0  0
  -35.4127   31.9961  -13.3238 H   0  0  0  0  0  0
  -34.0461   31.2488  -11.4093 H   0  0  0  0  0  0
  -35.1069   30.6771   -9.2718 H   0  0  0  0  0  0
  -37.0902   34.4130  -13.7689 H   0  0  0  0  0  0
  -38.4145   34.5491  -12.7540 H   0  0  0  0  0  0
  -36.9598   30.6200   -7.9580 H   0  0  0  0  0  0
  -39.2397   30.7200   -6.2856 H   0  0  0  0  0  0
  -40.0801   29.3107   -6.8929 H   0  0  0  0  0  0
  -36.0729   28.8831   -5.1828 H   0  0  0  0  0  0
  -33.7305   23.5682   -5.5308 H   0  0  0  0  0  0
  -35.0366   22.0032   -6.9236 H   0  0  0  0  0  0
  -37.1111   22.7500   -8.0162 H   0  0  0  0  0  0
  -37.9186   25.0102   -7.7502 H   0  0  0  0  0  0
  -32.0798   26.9425   -3.2389 H   0  0  0  0  0  0
  -31.1972   29.2868   -2.2840 H   0  0  0  0  0  0
  -33.1035   31.1394   -3.1121 H   0  0  0  0  0  0
  1  2  2  0  0  0
  1  6  1  0  0  0
  1 33  1  0  0  0
  2  3  1  0  0  0
  2  7  1  0  0  0
  3  4  2  0  0  0
  3 34  1  0  0  0
  4  5  1  0  0  0
  4 35  1  0  0  0
  5  6  2  0  0  0
  5 36  1  0  0  0
  6 11  1  0  0  0
  7  8  1  0  0  0
  7  9  2  0  0  0
  7 10  2  0  0  0
  8 37  1  0  0  0
  8 38  1  0  0  0
 11 12  1  0  0  0
 11 39  1  0  0  0
 12 13  1  0  0  0
 12 16  2  0  0  0
 13 14  1  0  0  0
 13 40  1  0  0  0
 13 41  1  0  0  0
 14 15  1  0  0  0
 15 17  1  0  0  0
 15 18  2  0  0  0
 17 23  2  0  0  0
 17 19  1  0  0  0
 19 20  2  0  0  0
 19 42  1  0  0  0
 20 21  1  0  0  0
 20 28  1  0  0  0
 21 22  2  0  0  0
 22 23  1  0  0  0
 22 24  1  0  0  0
 23 27  1  0  0  0
 24 25  2  0  0  0
 24 43  1  0  0  0
 25 26  1  0  0  0
 25 44  1  0  0  0
 26 27  2  0  0  0
 26 45  1  0  0  0
 27 46  1  0  0  0
 28 32  1  0  0  0
 28 29  2  0  0  0
 29 30  1  0  0  0
 29 47  1  0  0  0
 30 31  2  0  0  0
 30 48  1  0  0  0
 31 32  1  0  0  0
 31 49  1  0  0  0
M  END
> <s_m_entry_id>
23

> <s_m_entry_name>
7-GlideSP.1

> <s_m_Source_Path>
C:\Users\maila\Downloads\mgr\Dynamika_dlaRoksany\6joe

> <s_m_Source_File>
7-GlideSP.mol2

> <i_m_Source_File_Index>
1

$$$$
