9-patrmd
                    3D
 Schrodinger Suite 2021-1.
 52 55  0  0  1  0            999 V2000
  -36.2753   31.5625  -11.8385 N   0  0  0  0  0  0
  -36.9055   31.7448  -13.0519 C   0  0  0  0  0  0
  -35.9821   31.6222  -14.0790 C   0  0  0  0  0  0
  -34.7434   31.3690  -13.4894 C   0  0  0  0  0  0
  -34.9438   31.3421  -12.1180 C   0  0  0  0  0  0
  -36.8786   31.5797  -10.5655 C   0  0  0  0  0  0
  -37.8464   32.5421  -10.2561 C   0  0  0  0  0  0
  -38.4562   32.5421   -9.0032 C   0  0  0  0  0  0
  -38.1040   31.5856   -8.0517 C   0  0  0  0  0  0
  -37.1232   30.6276   -8.3426 C   0  0  0  0  0  0
  -36.5104   30.6330   -9.6013 C   0  0  0  0  0  0
  -36.6663   29.6561   -7.2857 C   0  0  0  0  0  0
  -37.5442   28.7360   -6.7979 N   0  0  0  0  0  0
  -37.3451   27.9649   -5.5509 C   0  0  0  0  0  0
  -35.9303   27.6840   -5.0346 C   0  0  0  0  0  0
  -35.4346   28.6487   -4.1431 C   0  0  0  0  0  0
  -34.1392   28.5726   -3.6495 C   0  0  0  0  0  0
  -33.3265   27.5191   -4.0246 C   0  0  0  0  0  0
  -33.8225   26.5423   -4.8775 C   0  0  0  0  0  0
  -35.1340   26.5559   -5.3819 C   0  0  0  0  0  0
  -35.5346   25.4540   -6.1880 N   0  0  0  0  0  0
  -34.8158   24.1753   -6.2776 C   0  0  0  0  0  0
  -35.4424   23.3746   -7.4117 C   0  0  0  0  0  0
  -36.9097   23.7118   -7.2731 C   0  0  0  0  0  0
  -36.9024   25.0509   -6.5280 C   0  0  0  0  0  0
  -38.9092   28.5842   -7.3197 C   0  0  0  0  0  0
  -35.5039   29.7434   -6.8989 O   0  0  0  0  0  0
  -37.9677   31.9380  -13.0829 H   0  0  0  0  0  0
  -36.1828   31.7067  -15.1370 H   0  0  0  0  0  0
  -33.8043   31.2213  -14.0031 H   0  0  0  0  0  0
  -34.2424   31.1792  -11.3124 H   0  0  0  0  0  0
  -38.1118   33.3128  -10.9675 H   0  0  0  0  0  0
  -39.1816   33.3082   -8.7668 H   0  0  0  0  0  0
  -38.5664   31.6214   -7.0744 H   0  0  0  0  0  0
  -35.7447   29.9040   -9.8265 H   0  0  0  0  0  0
  -37.8664   27.0326   -5.6494 H   0  0  0  0  0  0
  -37.8896   28.4892   -4.7634 H   0  0  0  0  0  0
  -36.0425   29.5010   -3.8697 H   0  0  0  0  0  0
  -33.7515   29.3422   -3.0019 H   0  0  0  0  0  0
  -32.3124   27.4526   -3.6583 H   0  0  0  0  0  0
  -33.1368   25.7538   -5.1393 H   0  0  0  0  0  0
  -33.7500   24.3060   -6.4594 H   0  0  0  0  0  0
  -34.9141   23.6479   -5.3262 H   0  0  0  0  0  0
  -35.2368   22.3052   -7.3409 H   0  0  0  0  0  0
  -35.0670   23.7271   -8.3731 H   0  0  0  0  0  0
  -37.4135   23.7700   -8.2393 H   0  0  0  0  0  0
  -37.4175   22.9514   -6.6763 H   0  0  0  0  0  0
  -37.4667   24.9531   -5.6019 H   0  0  0  0  0  0
  -37.3814   25.8132   -7.1408 H   0  0  0  0  0  0
  -39.6095   29.1676   -6.7214 H   0  0  0  0  0  0
  -39.2238   27.5404   -7.2789 H   0  0  0  0  0  0
  -39.0019   28.8987   -8.3599 H   0  0  0  0  0  0
  1  2  1  0  0  0
  1  5  1  0  0  0
  1  6  1  0  0  0
  2  3  2  0  0  0
  2 28  1  0  0  0
  3  4  1  0  0  0
  3 29  1  0  0  0
  4  5  2  0  0  0
  4 30  1  0  0  0
  5 31  1  0  0  0
  6 11  2  0  0  0
  6  7  1  0  0  0
  7  8  2  0  0  0
  7 32  1  0  0  0
  8  9  1  0  0  0
  8 33  1  0  0  0
  9 10  2  0  0  0
  9 34  1  0  0  0
 10 11  1  0  0  0
 10 12  1  0  0  0
 11 35  1  0  0  0
 12 13  1  0  0  0
 12 27  2  0  0  0
 13 14  1  0  0  0
 13 26  1  0  0  0
 14 15  1  0  0  0
 14 36  1  0  0  0
 14 37  1  0  0  0
 15 20  2  0  0  0
 15 16  1  0  0  0
 16 17  2  0  0  0
 16 38  1  0  0  0
 17 18  1  0  0  0
 17 39  1  0  0  0
 18 19  2  0  0  0
 18 40  1  0  0  0
 19 20  1  0  0  0
 19 41  1  0  0  0
 20 21  1  0  0  0
 21 25  1  0  0  0
 21 22  1  0  0  0
 22 23  1  0  0  0
 22 42  1  0  0  0
 22 43  1  0  0  0
 23 24  1  0  0  0
 23 44  1  0  0  0
 23 45  1  0  0  0
 24 25  1  0  0  0
 24 46  1  0  0  0
 24 47  1  0  0  0
 25 48  1  0  0  0
 25 49  1  0  0  0
 26 50  1  0  0  0
 26 51  1  0  0  0
 26 52  1  0  0  0
M  END
> <s_m_entry_id>
24

> <s_m_entry_name>
9-GlideSP.1

> <s_m_Source_Path>
C:\Users\maila\Downloads\mgr\Dynamika_dlaRoksany\6joe

> <s_m_Source_File>
9-GlideSP.mol2

> <i_m_Source_File_Index>
1

$$$$
