5zhj - preprocessed_ligand
                    3D
 Schrodinger Suite 2021-1.
 45 47  0  0  1  0            999 V2000
    6.0140  -21.2320  -15.7950 N   0  0  0  0  0  0
    6.2270  -20.8580  -14.3830 C   0  0  1  0  0  0
    4.9360  -20.3390  -13.7510 C   0  0  0  0  0  0
    4.7940  -18.8490  -14.0210 C   0  0  0  0  0  0
    3.7110  -17.9820  -12.8240 S   0  0  0  0  0  0
    6.7920  -22.0420  -13.5680 C   0  0  0  0  0  0
    6.3740  -23.1950  -13.8400 O   0  0  0  0  0  0
    7.6170  -21.7630  -12.6720 O   0  5  0  0  0  0
    4.7210  -16.4640  -12.5940 C   0  0  0  0  0  0
    5.4090  -16.3680  -11.2180 C   0  0  1  0  0  0
    4.4310  -16.4810  -10.2320 O   0  0  0  0  0  0
    6.3480  -17.5320  -10.9330 C   0  0  1  0  0  0
    7.6070  -17.2540  -11.5570 O   0  0  0  0  0  0
    6.4610  -17.4530   -9.4100 C   0  0  1  0  0  0
    7.4000  -16.3700   -8.9720 O   0  0  0  0  0  0
    5.0210  -17.0980   -9.0450 C   0  0  2  0  0  0
    4.1480  -18.2400   -8.5920 N   0  0  0  0  0  0
    3.0290  -18.6680   -9.1980 C   0  0  0  0  0  0
    2.5000  -19.6630   -8.4620 N   0  0  0  0  0  0
    3.2620  -19.8230   -7.3700 C   0  0  0  0  0  0
    3.1700  -20.6670   -6.3240 C   0  0  0  0  0  0
    2.1750  -21.5680   -6.3380 N   0  0  0  0  0  0
    4.0670  -20.6840   -5.3370 N   0  0  0  0  0  0
    5.1420  -19.7800   -5.3780 C   0  0  0  0  0  0
    5.2140  -18.9210   -6.4990 N   0  0  0  0  0  0
    4.2910  -18.9660   -7.4670 C   0  0  0  0  0  0
    6.8803  -21.5709  -16.1884 H   0  0  0  0  0  0
    5.3134  -21.9575  -15.8496 H   0  0  0  0  0  0
    6.9607  -20.0523  -14.3566 H   0  0  0  0  0  0
    4.9633  -20.5120  -12.6752 H   0  0  0  0  0  0
    4.0843  -20.8682  -14.1783 H   0  0  0  0  0  0
    4.4102  -18.6994  -15.0301 H   0  0  0  0  0  0
    5.7805  -18.3853  -14.0178 H   0  0  0  0  0  0
    4.0934  -15.5859  -12.7462 H   0  0  0  0  0  0
    5.4748  -16.4091  -13.3795 H   0  0  0  0  0  0
    5.9382  -15.4199  -11.1224 H   0  0  0  0  0  0
    5.9304  -18.4834  -11.2625 H   0  0  0  0  0  0
    8.2148  -17.9778  -11.3887 H   0  0  0  0  0  0
    6.7474  -18.4159   -8.9870 H   0  0  0  0  0  0
    7.4438  -16.3523   -8.0132 H   0  0  0  0  0  0
    5.0453  -16.3523   -8.2504 H   0  0  0  0  0  0
    2.7064  -18.2107  -10.1217 H   0  0  0  0  0  0
    2.0720  -22.2185   -5.5723 H   0  0  0  0  0  0
    1.5294  -21.5954   -7.1142 H   0  0  0  0  0  0
    5.8652  -19.7642   -4.5760 H   0  0  0  0  0  0
  1  2  1  0  0  0
  1 27  1  0  0  0
  1 28  1  0  0  0
  2  3  1  0  0  0
  2  6  1  0  0  0
  2 29  1  0  0  0
  3  4  1  0  0  0
  3 30  1  0  0  0
  3 31  1  0  0  0
  4  5  1  0  0  0
  4 32  1  0  0  0
  4 33  1  0  0  0
  5  9  1  0  0  0
  6  7  2  0  0  0
  6  8  1  0  0  0
  9 10  1  0  0  0
  9 34  1  0  0  0
  9 35  1  0  0  0
 10 11  1  0  0  0
 10 12  1  0  0  0
 10 36  1  0  0  0
 11 16  1  0  0  0
 12 13  1  0  0  0
 12 14  1  0  0  0
 12 37  1  0  0  0
 13 38  1  0  0  0
 14 15  1  0  0  0
 14 16  1  0  0  0
 14 39  1  0  0  0
 15 40  1  0  0  0
 16 17  1  0  0  0
 16 41  1  0  0  0
 17 18  1  0  0  0
 17 26  1  0  0  0
 18 19  2  0  0  0
 18 42  1  0  0  0
 19 20  1  0  0  0
 20 21  1  0  0  0
 20 26  2  0  0  0
 21 22  1  0  0  0
 21 23  2  0  0  0
 22 43  1  0  0  0
 22 44  1  0  0  0
 23 24  1  0  0  0
 24 25  2  0  0  0
 24 45  1  0  0  0
 25 26  1  0  0  0
M  CHG  1   8  -1
M  END
> <s_m_entry_id>
24

> <s_m_entry_name>
5zhj_ligand

> <s_pdb_PDB_TITLE>
CRYSTAL STRUCTURE OF TRMD FROM MYCOBACTERIUM TUBERCULOSIS IN COMPLEX WITH S-ADENOSYL HOMOCYSTEINE (SAH)

> <s_pdb_PDB_ID>
5ZHJ

> <r_pdb_PDB_CRYST1_a>
72.96

> <r_pdb_PDB_CRYST1_b>
50.761

> <r_pdb_PDB_CRYST1_c>
53.309

> <r_pdb_PDB_CRYST1_alpha>
90

> <r_pdb_PDB_CRYST1_beta>
95.1

> <r_pdb_PDB_CRYST1_gamma>
90

> <s_pdb_PDB_CRYST1_Space_Group>
C 1 2 1

> <i_pdb_PDB_CRYST1_z>
4

> <s_pdb_PDB_CLASSIFICATION>
TRANSFERASE

> <s_pdb_PDB_DEPOSITION_DATE>
13-MAR-18

> <s_pdb_PDB_format_version>
3.30

> <r_pdb_PDB_R>
0.177

> <r_pdb_PDB_Rfree>
0.202

> <r_pdb_PDB_RESOLUTION>
1.75

> <s_pdb_PDB_EXPDTA>
X-RAY DIFFRACTION

> <r_pdb_PDB_EXPDTA_TEMPERATURE>
100

> <r_pdb_PDB_EXPDTA_PH>
6.5

> <s_pdb_PDB_REMARK_350_Biomolecule_1_Transform_1_Chains>
A

> <s_pdb_PDB_REMARK_350_Biomolecule_1_Transform_1_Matrix_1>
1.000000 0.000000 0.000000   0.000000;0.000000 1.000000 0.000000   0.000000;0.000000 0.000000 1.000000   0.000000

> <s_pdb_PDB_REMARK_350_Biomolecule_1_Transform_1_Matrix_2>
-1.000000 0.000000 0.000000   0.000000;0.000000 1.000000 0.000000   0.000000;0.000000 0.000000 -1.000000   0.000000

> <s_ppw_entry_id_backup>
22

> <b_ppw_prepared>
1

> <s_ppw_prepared_with_version>
2021-1

> <b_ppw_assigned_bond_orders>
1

> <b_ppw_added_hydrogens>
1

> <b_ppw_treated_metals>
1

> <b_ppw_created_disulfur>
1

> <s_m_subgroup_title>
5zhj - preprocessed_split_by_structure

> <s_m_subgroupid>
5zhj - preprocessed_split_by_structure

> <b_m_subgroup_collapsed>
0

$$$$
