5ZHK - preprocessed_ligand
                    3D
 Schrodinger Suite 2021-1.
 58 61  0  0  1  0            999 V2000
    0.8320  -20.9190  -16.1980 C   0  0  0  0  0  0
   -0.5720  -21.5510  -16.0030 C   0  0  0  0  0  0
   -0.8780  -22.6610  -17.0390 C   0  0  0  0  0  0
    0.1340  -23.8300  -16.9290 C   0  0  0  0  0  0
    1.4200  -23.4220  -16.1550 C   0  0  0  0  0  0
    1.9120  -21.9880  -16.5380 C   0  0  0  0  0  0
    3.3480  -21.7070  -16.1790 N   0  0  1  0  0  0
    4.2900  -22.3230  -17.1690 C   0  0  0  0  0  0
    3.9160  -22.3150  -18.6750 C   0  0  0  0  0  0
    3.8010  -20.2940  -16.0770 C   0  0  0  0  0  0
    3.9180  -19.6370  -14.8420 C   0  0  0  0  0  0
    2.8270  -18.9040  -14.3550 C   0  0  0  0  0  0
    2.9330  -18.1170  -13.2020 C   0  0  0  0  0  0
    5.1700  -19.4510  -14.2390 C   0  0  0  0  0  0
    5.2880  -18.6540  -13.0840 C   0  0  0  0  0  0
    4.1630  -17.9970  -12.5520 C   0  0  0  0  0  0
    4.2580  -17.1570  -11.4350 C   0  0  0  0  0  0
    4.1020  -17.8630  -10.1420 N   0  0  0  0  0  0
    4.9400  -17.6420   -9.1140 C   0  0  0  0  0  0
    5.9050  -16.8830   -9.2570 O   0  0  0  0  0  0
    4.8190  -18.3360   -7.9450 C   0  0  0  0  0  0
    3.9340  -19.3050   -7.5180 C   0  0  0  0  0  0
    2.8120  -19.8610   -8.0580 C   0  0  0  0  0  0
    2.3700  -19.5840   -9.1740 O   0  0  0  0  0  0
    2.0940  -20.8380   -7.3720 N   0  0  0  0  0  0
    2.4050  -21.2220   -6.1540 C   0  0  0  0  0  0
    3.5410  -20.6680   -5.5890 N   0  0  0  0  0  0
    4.2570  -19.7570   -6.2620 C   0  0  0  0  0  0
    5.5640  -19.0480   -5.7340 S   0  0  0  0  0  0
    5.7690  -18.0740   -7.0400 C   0  0  0  0  0  0
    1.1200  -20.3886  -15.2904 H   0  0  0  0  0  0
    0.7890  -20.1799  -16.9980 H   0  0  0  0  0  0
   -1.3321  -20.7727  -16.0708 H   0  0  0  0  0  0
   -0.6468  -21.9639  -14.9970 H   0  0  0  0  0  0
   -0.8385  -22.2403  -18.0438 H   0  0  0  0  0  0
   -1.8877  -23.0389  -16.8783 H   0  0  0  0  0  0
    0.4050  -24.1701  -17.9285 H   0  0  0  0  0  0
   -0.3395  -24.6733  -16.4262 H   0  0  0  0  0  0
    2.2109  -24.1434  -16.3604 H   0  0  0  0  0  0
    1.2268  -23.4646  -15.0831 H   0  0  0  0  0  0
    1.9203  -22.0041  -17.6278 H   0  0  0  0  0  0
    4.5085  -23.3460  -16.8626 H   0  0  0  0  0  0
    5.2769  -21.8769  -17.0456 H   0  0  0  0  0  0
    4.7060  -22.7996  -19.2487 H   0  0  0  0  0  0
    2.9796  -22.8536  -18.8202 H   0  0  0  0  0  0
    3.7994  -21.2861  -19.0155 H   0  0  0  0  0  0
    3.1922  -19.6822  -16.7427 H   0  0  0  0  0  0
    4.7397  -20.1872  -16.6207 H   0  0  0  0  0  0
    1.8792  -18.9390  -14.8715 H   0  0  0  0  0  0
    2.0643  -17.6039  -12.8167 H   0  0  0  0  0  0
    6.0472  -19.9195  -14.6602 H   0  0  0  0  0  0
    6.2470  -18.5435  -12.5998 H   0  0  0  0  0  0
    3.5079  -16.3697  -11.5099 H   0  0  0  0  0  0
    5.2178  -16.6406  -11.4515 H   0  0  0  0  0  0
    3.3444  -18.5235  -10.0429 H   0  0  0  0  0  0
    1.2993  -21.2815   -7.8100 H   0  0  0  0  0  0
    1.7839  -21.9399   -5.6390 H   0  0  0  0  0  0
    6.5109  -17.3151   -7.2402 H   0  0  0  0  0  0
  1  2  1  0  0  0
  1  6  1  0  0  0
  1 31  1  0  0  0
  1 32  1  0  0  0
  2  3  1  0  0  0
  2 33  1  0  0  0
  2 34  1  0  0  0
  3  4  1  0  0  0
  3 35  1  0  0  0
  3 36  1  0  0  0
  4  5  1  0  0  0
  4 37  1  0  0  0
  4 38  1  0  0  0
  5  6  1  0  0  0
  5 39  1  0  0  0
  5 40  1  0  0  0
  6  7  1  0  0  0
  6 41  1  0  0  0
  7  8  1  0  0  0
  7 10  1  0  0  0
  8  9  1  0  0  0
  8 42  1  0  0  0
  8 43  1  0  0  0
  9 44  1  0  0  0
  9 45  1  0  0  0
  9 46  1  0  0  0
 10 11  1  0  0  0
 10 47  1  0  0  0
 10 48  1  0  0  0
 11 12  2  0  0  0
 11 14  1  0  0  0
 12 13  1  0  0  0
 12 49  1  0  0  0
 13 16  2  0  0  0
 13 50  1  0  0  0
 14 15  2  0  0  0
 14 51  1  0  0  0
 15 16  1  0  0  0
 15 52  1  0  0  0
 16 17  1  0  0  0
 17 18  1  0  0  0
 17 53  1  0  0  0
 17 54  1  0  0  0
 18 19  1  0  0  0
 18 55  1  0  0  0
 19 20  2  0  0  0
 19 21  1  0  0  0
 21 22  1  0  0  0
 21 30  2  0  0  0
 22 23  1  0  0  0
 22 28  2  0  0  0
 23 24  2  0  0  0
 23 25  1  0  0  0
 25 26  1  0  0  0
 25 56  1  0  0  0
 26 27  2  0  0  0
 26 57  1  0  0  0
 27 28  1  0  0  0
 28 29  1  0  0  0
 29 30  1  0  0  0
 30 58  1  0  0  0
M  END
> <s_m_entry_id>
183

> <s_m_entry_name>
pdb5zhk.ent.1_ligand

> <s_pdb_PDB_TITLE>
CRYSTAL STRUCTURE OF TRMD FROM MYCOBACTERIUM TUBERCULOSIS IN COMPLEX WITH ACTIVE-SITE INHIBITOR

> <s_pdb_PDB_ID>
5ZHK

> <r_pdb_PDB_CRYST1_a>
73.09

> <r_pdb_PDB_CRYST1_b>
50.8

> <r_pdb_PDB_CRYST1_c>
58.081

> <r_pdb_PDB_CRYST1_alpha>
90

> <r_pdb_PDB_CRYST1_beta>
90.56

> <r_pdb_PDB_CRYST1_gamma>
90

> <s_pdb_PDB_CRYST1_Space_Group>
C 1 2 1

> <i_pdb_PDB_CRYST1_z>
4

> <s_pdb_PDB_CLASSIFICATION>
TRANSFERASE

> <s_pdb_PDB_DEPOSITION_DATE>
13-MAR-18

> <s_pdb_PDB_format_version>
3.30

> <r_pdb_PDB_R>
0.173

> <r_pdb_PDB_Rfree>
0.227

> <r_pdb_PDB_RESOLUTION>
2.3

> <s_pdb_PDB_EXPDTA>
X-RAY DIFFRACTION

> <r_pdb_PDB_EXPDTA_TEMPERATURE>
100

> <s_pdb_PDB_REMARK_350_Biomolecule_1_Transform_1_Chains>
A

> <s_pdb_PDB_REMARK_350_Biomolecule_1_Transform_1_Matrix_1>
1.000000 0.000000 0.000000   0.000000;0.000000 1.000000 0.000000   0.000000;0.000000 0.000000 1.000000   0.000000

> <s_m_Source_Path>
C:\Users\maila\AppData\Local\Temp\7zE0C379B6C

> <s_m_Source_File>
pdb5zhk.ent.gz

> <i_m_Source_File_Index>
1

> <r_pdb_PDB_EXPDTA_PH>
6.5

> <s_pdb_PDB_REMARK_350_Biomolecule_1_Transform_1_Matrix_2>
-1.000000 0.000000 0.000000   0.000000;0.000000 1.000000 0.000000   0.000000;0.000000 0.000000 -1.000000   0.000000

> <s_ppw_entry_id_backup>
57

> <b_ppw_prepared>
1

> <s_ppw_prepared_with_version>
2021-1

> <b_ppw_assigned_bond_orders>
1

> <b_ppw_added_hydrogens>
1

> <b_ppw_treated_metals>
1

> <b_ppw_created_disulfur>
1

> <s_m_subgroup_title>
5ZHK - preprocessed_split_by_structure

> <s_m_subgroupid>
5ZHK - preprocessed_split_by_structure

> <b_m_subgroup_collapsed>
0

$$$$
