5ZHL - preprocessed_ligand
                    3D
 Schrodinger Suite 2021-1.
 60 62  0  0  1  0            999 V2000
   -1.6120  -16.0540  -22.3070 C   0  0  0  0  0  0
   -0.3640  -15.8950  -21.4250 C   0  0  0  0  0  0
    0.3710  -17.2350  -21.2980 C   0  0  0  0  0  0
    0.0180  -17.9020  -19.9630 C   0  0  0  0  0  0
    0.7650  -19.2290  -19.8200 C   0  0  0  0  0  0
    0.7180  -19.6720  -18.3530 C   0  0  0  0  0  0
    1.2660  -21.1010  -18.2350 C   0  0  0  0  0  0
    1.9080  -21.3060  -16.8580 C   0  0  0  0  0  0
    3.2930  -20.8120  -16.8170 N   0  0  1  0  0  0
    4.0080  -21.1900  -15.5880 C   0  0  0  0  0  0
    4.0520  -20.1880  -14.5960 C   0  0  0  0  0  0
    5.2570  -19.5270  -14.2900 C   0  0  0  0  0  0
    5.3150  -18.5840  -13.2500 C   0  0  0  0  0  0
    2.9160  -19.9280  -13.8180 C   0  0  0  0  0  0
    2.9710  -18.9750  -12.7960 C   0  0  0  0  0  0
    4.1610  -18.2950  -12.5060 C   0  0  0  0  0  0
    4.1920  -17.3680  -11.4530 C   0  0  0  0  0  0
    4.1220  -18.0510  -10.1250 N   0  0  0  0  0  0
    4.9360  -17.7770   -9.0770 C   0  0  0  0  0  0
    5.8430  -16.9520   -9.2180 O   0  0  0  0  0  0
    4.8340  -18.4910   -7.8910 C   0  0  0  0  0  0
    3.9340  -19.4610   -7.4700 C   0  0  0  0  0  0
    2.8040  -20.0210   -8.0220 C   0  0  0  0  0  0
    2.3280  -19.7310   -9.1280 O   0  0  0  0  0  0
    2.0920  -21.0260   -7.3510 N   0  0  0  0  0  0
    2.3910  -21.4300   -6.1430 C   0  0  0  0  0  0
    3.5020  -20.8460   -5.5640 N   0  0  0  0  0  0
    4.2490  -19.9390   -6.2160 C   0  0  0  0  0  0
    5.5870  -19.2240   -5.5960 S   0  0  0  0  0  0
    5.7960  -18.2560   -6.9700 C   0  0  0  0  0  0
   -2.1243  -15.0954  -22.3888 H   0  0  0  0  0  0
   -1.3153  -16.3926  -23.2997 H   0  0  0  0  0  0
   -2.2831  -16.7870  -21.8592 H   0  0  0  0  0  0
   -0.6608  -15.5485  -20.4351 H   0  0  0  0  0  0
    0.3027  -15.1559  -21.8692 H   0  0  0  0  0  0
    1.4466  -17.0651  -21.3457 H   0  0  0  0  0  0
    0.0780  -17.8890  -22.1193 H   0  0  0  0  0  0
   -1.0559  -18.0836  -19.9207 H   0  0  0  0  0  0
    0.2938  -17.2399  -19.1422 H   0  0  0  0  0  0
    1.8027  -19.0963  -20.1261 H   0  0  0  0  0  0
    0.2858  -19.9843  -20.4429 H   0  0  0  0  0  0
   -0.3128  -19.6481  -17.9994 H   0  0  0  0  0  0
    1.3276  -18.9985  -17.7506 H   0  0  0  0  0  0
    2.0118  -21.2691  -19.0119 H   0  0  0  0  0  0
    0.4520  -21.8140  -18.3658 H   0  0  0  0  0  0
    1.8936  -22.3662  -16.6055 H   0  0  0  0  0  0
    1.3165  -20.7900  -16.1017 H   0  0  0  0  0  0
    3.8093  -21.1906  -17.5982 H   0  0  0  0  0  0
    5.0243  -21.4925  -15.8405 H   0  0  0  0  0  0
    3.5575  -22.0908  -15.1711 H   0  0  0  0  0  0
    6.1504  -19.7427  -14.8573 H   0  0  0  0  0  0
    6.2457  -18.0843  -13.0255 H   0  0  0  0  0  0
    1.9975  -20.4637  -14.0075 H   0  0  0  0  0  0
    2.0872  -18.7534  -12.2162 H   0  0  0  0  0  0
    3.3531  -16.6791  -11.5513 H   0  0  0  0  0  0
    5.1095  -16.7825  -11.5119 H   0  0  0  0  0  0
    3.4077  -18.7597  -10.0378 H   0  0  0  0  0  0
    1.3068  -21.4747   -7.8007 H   0  0  0  0  0  0
    1.7820  -22.1783   -5.6576 H   0  0  0  0  0  0
    6.5653  -17.5241   -7.1673 H   0  0  0  0  0  0
  1  2  1  0  0  0
  1 31  1  0  0  0
  1 32  1  0  0  0
  1 33  1  0  0  0
  2  3  1  0  0  0
  2 34  1  0  0  0
  2 35  1  0  0  0
  3  4  1  0  0  0
  3 36  1  0  0  0
  3 37  1  0  0  0
  4  5  1  0  0  0
  4 38  1  0  0  0
  4 39  1  0  0  0
  5  6  1  0  0  0
  5 40  1  0  0  0
  5 41  1  0  0  0
  6  7  1  0  0  0
  6 42  1  0  0  0
  6 43  1  0  0  0
  7  8  1  0  0  0
  7 44  1  0  0  0
  7 45  1  0  0  0
  8  9  1  0  0  0
  8 46  1  0  0  0
  8 47  1  0  0  0
  9 10  1  0  0  0
  9 48  1  0  0  0
 10 11  1  0  0  0
 10 49  1  0  0  0
 10 50  1  0  0  0
 11 12  2  0  0  0
 11 14  1  0  0  0
 12 13  1  0  0  0
 12 51  1  0  0  0
 13 16  2  0  0  0
 13 52  1  0  0  0
 14 15  2  0  0  0
 14 53  1  0  0  0
 15 16  1  0  0  0
 15 54  1  0  0  0
 16 17  1  0  0  0
 17 18  1  0  0  0
 17 55  1  0  0  0
 17 56  1  0  0  0
 18 19  1  0  0  0
 18 57  1  0  0  0
 19 20  2  0  0  0
 19 21  1  0  0  0
 21 22  1  0  0  0
 21 30  2  0  0  0
 22 23  1  0  0  0
 22 28  2  0  0  0
 23 24  2  0  0  0
 23 25  1  0  0  0
 25 26  1  0  0  0
 25 58  1  0  0  0
 26 27  2  0  0  0
 26 59  1  0  0  0
 27 28  1  0  0  0
 28 29  1  0  0  0
 29 30  1  0  0  0
 30 60  1  0  0  0
M  END
> <s_m_entry_id>
180

> <s_m_entry_name>
pdb5zhl.ent.1_ligand

> <s_pdb_PDB_TITLE>
CRYSTAL STRUCTURE OF TRMD FROM MYCOBACTERIUM TUBERCULOSIS IN COMPLEX WITH ACTIVE-SITE INHIBITOR

> <s_pdb_PDB_ID>
5ZHL

> <r_pdb_PDB_CRYST1_a>
73.69

> <r_pdb_PDB_CRYST1_b>
50.23

> <r_pdb_PDB_CRYST1_c>
57.94

> <r_pdb_PDB_CRYST1_alpha>
90

> <r_pdb_PDB_CRYST1_beta>
90.95

> <r_pdb_PDB_CRYST1_gamma>
90

> <s_pdb_PDB_CRYST1_Space_Group>
C 1 2 1

> <i_pdb_PDB_CRYST1_z>
4

> <s_pdb_PDB_CLASSIFICATION>
TRANSFERASE

> <s_pdb_PDB_DEPOSITION_DATE>
13-MAR-18

> <s_pdb_PDB_format_version>
3.30

> <r_pdb_PDB_R>
0.158

> <r_pdb_PDB_Rfree>
0.211

> <r_pdb_PDB_RESOLUTION>
2.25

> <s_pdb_PDB_EXPDTA>
X-RAY DIFFRACTION

> <r_pdb_PDB_EXPDTA_TEMPERATURE>
100

> <s_pdb_PDB_REMARK_350_Biomolecule_1_Transform_1_Chains>
A

> <s_pdb_PDB_REMARK_350_Biomolecule_1_Transform_1_Matrix_1>
1.000000 0.000000 0.000000   0.000000;0.000000 1.000000 0.000000   0.000000;0.000000 0.000000 1.000000   0.000000

> <s_m_Source_Path>
C:\Users\maila\AppData\Local\Temp\7zE0C379B6C

> <s_m_Source_File>
pdb5zhl.ent.gz

> <i_m_Source_File_Index>
1

> <r_pdb_PDB_EXPDTA_PH>
6.5

> <s_pdb_PDB_REMARK_350_Biomolecule_1_Transform_1_Matrix_2>
-1.000000 0.000000 0.000000   0.000000;0.000000 1.000000 0.000000   0.000000;0.000000 0.000000 -1.000000   0.000000

> <s_ppw_entry_id_backup>
58

> <b_ppw_prepared>
1

> <s_ppw_prepared_with_version>
2021-1

> <b_ppw_assigned_bond_orders>
1

> <b_ppw_added_hydrogens>
1

> <b_ppw_treated_metals>
1

> <b_ppw_created_disulfur>
1

> <s_m_subgroup_title>
5ZHL - preprocessed_split_by_structure

> <s_m_subgroupid>
5ZHL - preprocessed_split_by_structure

> <b_m_subgroup_collapsed>
0

$$$$
