6jof - preprocessed_ligand
                    3D
 Schrodinger Suite 2021-1.
 51 54  0  0  1  0            999 V2000
    1.0050   14.6300  -16.0290 C   0  0  0  0  0  0
   -0.3690   14.6610  -16.7560 C   0  0  0  0  0  0
   -0.1820   14.5090  -18.2930 C   0  0  0  0  0  0
   -1.4630   14.6820  -19.0030 N   0  0  0  0  0  0
    0.8970   15.4870  -18.8400 C   0  0  0  0  0  0
    2.1840   15.4100  -17.9840 C   0  0  0  0  0  0
    1.9440   15.6690  -16.5400 N   0  0  2  0  0  0
    3.2570   15.5980  -15.8480 C   0  0  0  0  0  0
    3.4550   16.5170  -14.7930 C   0  0  0  0  0  0
    4.5620   17.3770  -14.8040 C   0  0  0  0  0  0
    4.7780   18.2620  -13.7330 C   0  0  0  0  0  0
    2.6170   16.5340  -13.6710 C   0  0  0  0  0  0
    2.8310   17.4200  -12.6050 C   0  0  0  0  0  0
    3.9260   18.2890  -12.6190 C   0  0  0  0  0  0
    4.1580   19.1940  -11.5560 C   0  0  0  0  0  0
    4.1990   18.5160  -10.2280 N   0  0  0  0  0  0
    4.7620   19.0350   -9.1060 C   0  0  0  0  0  0
    5.4420   20.0640   -9.1530 O   0  0  0  0  0  0
    4.7350   18.3150   -7.9410 C   0  0  0  0  0  0
    3.8420   17.3660   -7.4720 C   0  0  0  0  0  0
    2.7450   16.7440   -8.0120 C   0  0  0  0  0  0
    2.2710   17.0210   -9.1130 O   0  0  0  0  0  0
    2.0330   15.7340   -7.3070 N   0  0  0  0  0  0
    2.3970   15.3510   -6.0950 C   0  0  0  0  0  0
    3.5240   15.9740   -5.5420 N   0  0  0  0  0  0
    4.1840   16.9470   -6.2070 C   0  0  0  0  0  0
    5.5120   17.7510   -5.6830 S   0  0  0  0  0  0
    5.6710   18.6560   -7.0470 C   0  0  0  0  0  0
    1.4555   13.6446  -16.1476 H   0  0  0  0  0  0
    0.8523   14.7741  -14.9594 H   0  0  0  0  0  0
   -0.8711   15.6047  -16.5430 H   0  0  0  0  0  0
   -0.9946   13.8494  -16.3845 H   0  0  0  0  0  0
    0.1662   13.4939  -18.4839 H   0  0  0  0  0  0
   -1.3143   14.5788  -19.9967 H   0  0  0  0  0  0
   -2.1206   13.9835  -18.6871 H   0  0  0  0  0  0
    0.5079   16.5050  -18.8197 H   0  0  0  0  0  0
    1.1317   15.2280  -19.8724 H   0  0  0  0  0  0
    2.9143   16.1247  -18.3634 H   0  0  0  0  0  0
    2.6406   14.4276  -18.1045 H   0  0  0  0  0  0
    4.0560   15.7139  -16.5803 H   0  0  0  0  0  0
    3.4132   14.5852  -15.4765 H   0  0  0  0  0  0
    5.2505   17.3604  -15.6360 H   0  0  0  0  0  0
    5.6162   18.9427  -13.7556 H   0  0  0  0  0  0
    1.7807   15.8532  -13.6112 H   0  0  0  0  0  0
    2.1483   17.4330  -11.7683 H   0  0  0  0  0  0
    3.3771   19.9545  -11.5506 H   0  0  0  0  0  0
    5.0990   19.7176  -11.7247 H   0  0  0  0  0  0
    3.7655   17.6042  -10.2001 H   0  0  0  0  0  0
    1.2299   15.2924   -7.7315 H   0  0  0  0  0  0
    1.8327   14.5897   -5.5770 H   0  0  0  0  0  0
    6.3863   19.4301   -7.2827 H   0  0  0  0  0  0
  1  2  1  0  0  0
  1  7  1  0  0  0
  1 29  1  0  0  0
  1 30  1  0  0  0
  2  3  1  0  0  0
  2 31  1  0  0  0
  2 32  1  0  0  0
  3  4  1  0  0  0
  3  5  1  0  0  0
  3 33  1  0  0  0
  4 34  1  0  0  0
  4 35  1  0  0  0
  5  6  1  0  0  0
  5 36  1  0  0  0
  5 37  1  0  0  0
  6  7  1  0  0  0
  6 38  1  0  0  0
  6 39  1  0  0  0
  7  8  1  0  0  0
  8  9  1  0  0  0
  8 40  1  0  0  0
  8 41  1  0  0  0
  9 10  2  0  0  0
  9 12  1  0  0  0
 10 11  1  0  0  0
 10 42  1  0  0  0
 11 14  2  0  0  0
 11 43  1  0  0  0
 12 13  2  0  0  0
 12 44  1  0  0  0
 13 14  1  0  0  0
 13 45  1  0  0  0
 14 15  1  0  0  0
 15 16  1  0  0  0
 15 46  1  0  0  0
 15 47  1  0  0  0
 16 17  1  0  0  0
 16 48  1  0  0  0
 17 18  2  0  0  0
 17 19  1  0  0  0
 19 20  1  0  0  0
 19 28  2  0  0  0
 20 21  1  0  0  0
 20 26  2  0  0  0
 21 22  2  0  0  0
 21 23  1  0  0  0
 23 24  1  0  0  0
 23 49  1  0  0  0
 24 25  2  0  0  0
 24 50  1  0  0  0
 25 26  1  0  0  0
 26 27  1  0  0  0
 27 28  1  0  0  0
 28 51  1  0  0  0
M  END
> <s_m_entry_id>
28

> <s_m_entry_name>
6jof_ligand

> <s_pdb_PDB_TITLE>
CRYSTAL STRUCTURE OF TRMD FROM MYCOBACTERIUM TUBERCULOSIS IN COMPLEX WITH ACTIVE-SITE INHIBITOR

> <s_pdb_PDB_ID>
6JOF

> <r_pdb_PDB_CRYST1_a>
73.07

> <r_pdb_PDB_CRYST1_b>
51.38

> <r_pdb_PDB_CRYST1_c>
57.95

> <r_pdb_PDB_CRYST1_alpha>
90

> <r_pdb_PDB_CRYST1_beta>
90.19

> <r_pdb_PDB_CRYST1_gamma>
90

> <s_pdb_PDB_CRYST1_Space_Group>
C 1 2 1

> <i_pdb_PDB_CRYST1_z>
4

> <s_pdb_PDB_CLASSIFICATION>
TRANSFERASE/INHIBITOR

> <s_pdb_PDB_DEPOSITION_DATE>
20-MAR-19

> <s_pdb_PDB_format_version>
3.30

> <r_pdb_PDB_R>
0.218

> <r_pdb_PDB_Rfree>
0.262

> <r_pdb_PDB_RESOLUTION>
2.2

> <s_pdb_PDB_EXPDTA>
X-RAY DIFFRACTION

> <r_pdb_PDB_EXPDTA_TEMPERATURE>
100

> <r_pdb_PDB_EXPDTA_PH>
6.5

> <s_pdb_PDB_REMARK_350_Biomolecule_1_Transform_1_Chains>
A

> <s_pdb_PDB_REMARK_350_Biomolecule_1_Transform_1_Matrix_1>
1.000000 0.000000 0.000000   0.000000;0.000000 1.000000 0.000000   0.000000;0.000000 0.000000 1.000000   0.000000

> <s_pdb_PDB_REMARK_350_Biomolecule_1_Transform_1_Matrix_2>
-1.000000 0.000000 0.000000   0.000000;0.000000 1.000000 0.000000   0.000000;0.000000 0.000000 -1.000000   0.000000

> <s_ppw_entry_id_backup>
26

> <b_ppw_prepared>
1

> <s_ppw_prepared_with_version>
2021-1

> <b_ppw_assigned_bond_orders>
1

> <b_ppw_added_hydrogens>
1

> <b_ppw_treated_metals>
1

> <b_ppw_created_disulfur>
1

> <s_m_subgroup_title>
6jof - preprocessed_split_by_structure

> <s_m_subgroupid>
6jof - preprocessed_split_by_structure

> <b_m_subgroup_collapsed>
0

$$$$
