6nw6 - preprocessed_chainA_ligand
                    3D
 Schrodinger Suite 2021-1.
 50 52  0  0  1  0            999 V2000
  -24.4310  -19.8620    7.1860 N   0  0  0  0  0  0
  -23.2500  -20.7260    7.2150 C   0  0  2  0  0  0
  -22.6860  -20.9160    5.8040 C   0  0  0  0  0  0
  -21.4710  -20.9380    5.5980 O   0  0  0  0  0  0
  -23.4300  -21.0360    4.8300 O   0  0  0  0  0  0
  -23.5730  -22.0560    7.9060 C   0  0  0  0  0  0
  -22.4300  -22.8020    8.5850 C   0  0  0  0  0  0
  -22.4320  -22.8060   10.4060 S   0  3  2  0  0  0
  -22.0850  -24.5510   10.7540 C   0  0  0  0  0  0
  -24.1550  -22.6950   10.9750 C   0  0  0  0  0  0
  -24.5500  -21.3620   11.6180 C   0  0  1  0  0  0
  -23.7490  -20.9850   12.7530 O   0  0  0  0  0  0
  -24.4390  -20.2220   10.6220 C   0  0  1  0  0  0
  -25.5880  -20.1320    9.7910 O   0  0  0  0  0  0
  -24.2790  -19.0150   11.5090 C   0  0  1  0  0  0
  -25.5560  -18.6030   11.9920 O   0  0  0  0  0  0
  -23.5150  -19.5850   12.6930 C   0  0  2  0  0  0
  -22.0510  -19.3350   12.6290 N   0  0  0  0  0  0
  -21.0610  -20.2940   12.5480 C   0  0  0  0  0  0
  -19.8520  -19.6860   12.5440 N   0  0  0  0  0  0
  -20.0500  -18.3380   12.6410 C   0  0  0  0  0  0
  -19.1850  -17.2510   12.6940 C   0  0  0  0  0  0
  -17.8520  -17.4040   12.6450 N   0  0  0  0  0  0
  -19.7120  -15.9830   12.8020 N   0  0  0  0  0  0
  -21.0790  -15.7760   12.8430 C   0  0  0  0  0  0
  -21.9420  -16.8540   12.8090 N   0  0  0  0  0  0
  -21.4330  -18.1130   12.7070 C   0  0  0  0  0  0
  -24.7886  -19.7482    8.1237 H   0  0  0  0  0  0
  -24.1789  -18.9589    6.8105 H   0  0  0  0  0  0
  -22.4878  -20.2224    7.8095 H   0  0  0  0  0  0
  -22.9025  -21.1451    4.0353 H   0  0  0  0  0  0
  -24.0592  -22.7207    7.1920 H   0  0  0  0  0  0
  -24.3751  -21.8984    8.6271 H   0  0  0  0  0  0
  -21.4798  -22.4049    8.2279 H   0  0  0  0  0  0
  -22.4075  -23.8301    8.2237 H   0  0  0  0  0  0
  -22.0554  -24.7081   11.8322 H   0  0  0  0  0  0
  -22.8680  -25.1716   10.3183 H   0  0  0  0  0  0
  -21.1227  -24.8240   10.3210 H   0  0  0  0  0  0
  -24.3562  -23.5061   11.6748 H   0  0  0  0  0  0
  -24.8241  -22.9046   10.1405 H   0  0  0  0  0  0
  -25.5885  -21.4332   11.9413 H   0  0  0  0  0  0
  -23.5474  -20.3516   10.0085 H   0  0  0  0  0  0
  -25.4824  -19.4024    9.1761 H   0  0  0  0  0  0
  -23.7397  -18.2057   11.0167 H   0  0  0  0  0  0
  -25.4520  -17.8338   12.5570 H   0  0  0  0  0  0
  -23.9030  -19.1310   13.6048 H   0  0  0  0  0  0
  -21.3252  -21.3401   12.5002 H   0  0  0  0  0  0
  -17.2490  -16.5948   12.6856 H   0  0  0  0  0  0
  -17.4523  -18.3283   12.5675 H   0  0  0  0  0  0
  -21.4715  -14.7716   12.9016 H   0  0  0  0  0  0
  1  2  1  0  0  0
  1 28  1  0  0  0
  1 29  1  0  0  0
  2  3  1  0  0  0
  2  6  1  0  0  0
  2 30  1  0  0  0
  3  4  2  0  0  0
  3  5  1  0  0  0
  5 31  1  0  0  0
  6  7  1  0  0  0
  6 32  1  0  0  0
  6 33  1  0  0  0
  7  8  1  0  0  0
  7 34  1  0  0  0
  7 35  1  0  0  0
  8  9  1  0  0  0
  8 10  1  0  0  0
  9 36  1  0  0  0
  9 37  1  0  0  0
  9 38  1  0  0  0
 10 11  1  0  0  0
 10 39  1  0  0  0
 10 40  1  0  0  0
 11 12  1  0  0  0
 11 13  1  0  0  0
 11 41  1  0  0  0
 12 17  1  0  0  0
 13 14  1  0  0  0
 13 15  1  0  0  0
 13 42  1  0  0  0
 14 43  1  0  0  0
 15 16  1  0  0  0
 15 17  1  0  0  0
 15 44  1  0  0  0
 16 45  1  0  0  0
 17 18  1  0  0  0
 17 46  1  0  0  0
 18 19  1  0  0  0
 18 27  1  0  0  0
 19 20  2  0  0  0
 19 47  1  0  0  0
 20 21  1  0  0  0
 21 22  1  0  0  0
 21 27  2  0  0  0
 22 23  1  0  0  0
 22 24  2  0  0  0
 23 48  1  0  0  0
 23 49  1  0  0  0
 24 25  1  0  0  0
 25 26  2  0  0  0
 25 50  1  0  0  0
 26 27  1  0  0  0
M  CHG  1   8   1
M  END
> <s_m_entry_id>
34

> <s_m_entry_name>
6nw6_A_ligand

> <s_pdb_PDB_TITLE>
CRYSTAL STRUCTURE OF TRMD, A TRNA-(N1G37) METHYLTRANSFERASE, FROM MYCOBACTERIUM ABSCESSUS IN COMPLEX WITH S-ADENOSYL METHIONINE

> <s_pdb_PDB_ID>
6NW6

> <r_pdb_PDB_CRYST1_a>
75.034

> <r_pdb_PDB_CRYST1_b>
79.24

> <r_pdb_PDB_CRYST1_c>
87.313

> <r_pdb_PDB_CRYST1_alpha>
90

> <r_pdb_PDB_CRYST1_beta>
90

> <r_pdb_PDB_CRYST1_gamma>
90

> <s_pdb_PDB_CRYST1_Space_Group>
P 21 21 21

> <i_pdb_PDB_CRYST1_z>
8

> <s_pdb_PDB_CLASSIFICATION>
TRANSFERASE

> <s_pdb_PDB_DEPOSITION_DATE>
06-FEB-19

> <s_pdb_PDB_format_version>
3.30

> <r_pdb_PDB_R>
0.181

> <r_pdb_PDB_Rfree>
0.205

> <r_pdb_PDB_RESOLUTION>
1.67

> <s_pdb_PDB_EXPDTA>
X-RAY DIFFRACTION

> <r_pdb_PDB_EXPDTA_TEMPERATURE>
100

> <s_pdb_PDB_REMARK_350_Biomolecule_1_Transform_1_Chains>
A, B

> <s_pdb_PDB_REMARK_350_Biomolecule_1_Transform_1_Matrix_1>
1.000000 0.000000 0.000000   0.000000;0.000000 1.000000 0.000000   0.000000;0.000000 0.000000 1.000000   0.000000

> <s_ppw_entry_id_backup>
30

> <b_ppw_prepared>
1

> <s_ppw_prepared_with_version>
2021-1

> <b_ppw_assigned_bond_orders>
1

> <b_ppw_added_hydrogens>
1

> <b_ppw_treated_metals>
1

> <b_ppw_created_disulfur>
1

> <s_m_Chain_Name>
A

> <s_m_subgroup_title>
6nw6 - preprocessed_split_by_chain->6nw6 - preprocessed_chainA_split_by_structure

> <s_m_subgroupid>
6nw6 - preprocessed_split_by_chain->6nw6 - preprocessed_chainA_split_by_structure

> <b_m_subgroup_collapsed>
0

$$$$
