6nw7 - preprocessed_chainA_ligand
                    3D
 Schrodinger Suite 2021-1.
 45 47  0  0  1  0            999 V2000
  -21.9480  -24.0710    5.4580 N   0  0  0  0  0  0
  -22.3210  -22.9180    6.2680 C   0  0  1  0  0  0
  -22.1770  -23.2590    7.7450 C   0  0  0  0  0  0
  -23.2370  -22.6400    8.6470 C   0  0  0  0  0  0
  -22.7500  -22.7480   10.3860 S   0  0  0  0  0  0
  -21.4540  -21.7110    5.9210 C   0  0  0  0  0  0
  -20.2240  -21.8020    5.9070 O   0  0  0  0  0  0
  -21.9610  -20.6190    5.6490 O   0  5  0  0  0  0
  -24.4470  -22.5910   11.0090 C   0  0  0  0  0  0
  -24.8250  -21.2090   11.5450 C   0  0  1  0  0  0
  -23.9820  -20.8370   12.6370 O   0  0  0  0  0  0
  -24.6710  -20.0730   10.5380 C   0  0  1  0  0  0
  -25.7690  -19.9370    9.6490 O   0  0  0  0  0  0
  -24.5100  -18.8550   11.4130 C   0  0  1  0  0  0
  -25.7780  -18.4480   11.9090 O   0  0  0  0  0  0
  -23.7460  -19.4430   12.5800 C   0  0  2  0  0  0
  -22.2730  -19.2260   12.5370 N   0  0  0  0  0  0
  -21.2860  -20.1860   12.4430 C   0  0  0  0  0  0
  -20.0680  -19.5780   12.4610 N   0  0  0  0  0  0
  -20.2670  -18.2360   12.5790 C   0  0  0  0  0  0
  -19.4010  -17.1410   12.6460 C   0  0  0  0  0  0
  -18.0630  -17.2750   12.6040 N   0  0  0  0  0  0
  -19.9510  -15.8780   12.7490 N   0  0  0  0  0  0
  -21.3220  -15.6860   12.7800 C   0  0  0  0  0  0
  -22.1820  -16.7620   12.7300 N   0  0  0  0  0  0
  -21.6510  -18.0180   12.6240 C   0  0  0  0  0  0
  -22.0448  -23.8410    4.4793 H   0  0  0  0  0  0
  -20.9891  -24.3226    5.6510 H   0  0  0  0  0  0
  -23.3631  -22.6704    6.0658 H   0  0  0  0  0  0
  -21.1882  -22.9570    8.0903 H   0  0  0  0  0  0
  -22.1863  -24.3420    7.8679 H   0  0  0  0  0  0
  -24.1845  -23.1591    8.5026 H   0  0  0  0  0  0
  -23.3798  -21.5943    8.3744 H   0  0  0  0  0  0
  -24.6161  -23.3370   11.7855 H   0  0  0  0  0  0
  -25.1468  -22.8765   10.2236 H   0  0  0  0  0  0
  -25.8584  -21.2357   11.8908 H   0  0  0  0  0  0
  -23.7584  -20.2248    9.9616 H   0  0  0  0  0  0
  -25.6053  -19.2074    9.0469 H   0  0  0  0  0  0
  -23.9704  -18.0474   10.9183 H   0  0  0  0  0  0
  -25.6708  -17.6729   12.4651 H   0  0  0  0  0  0
  -24.1290  -18.9955   13.4972 H   0  0  0  0  0  0
  -21.5532  -21.2299   12.3710 H   0  0  0  0  0  0
  -17.4718  -16.4577   12.6553 H   0  0  0  0  0  0
  -17.6497  -18.1929   12.5212 H   0  0  0  0  0  0
  -21.7260  -14.6864   12.8439 H   0  0  0  0  0  0
  1  2  1  0  0  0
  1 27  1  0  0  0
  1 28  1  0  0  0
  2  3  1  0  0  0
  2  6  1  0  0  0
  2 29  1  0  0  0
  3  4  1  0  0  0
  3 30  1  0  0  0
  3 31  1  0  0  0
  4  5  1  0  0  0
  4 32  1  0  0  0
  4 33  1  0  0  0
  5  9  1  0  0  0
  6  7  2  0  0  0
  6  8  1  0  0  0
  9 10  1  0  0  0
  9 34  1  0  0  0
  9 35  1  0  0  0
 10 11  1  0  0  0
 10 12  1  0  0  0
 10 36  1  0  0  0
 11 16  1  0  0  0
 12 13  1  0  0  0
 12 14  1  0  0  0
 12 37  1  0  0  0
 13 38  1  0  0  0
 14 15  1  0  0  0
 14 16  1  0  0  0
 14 39  1  0  0  0
 15 40  1  0  0  0
 16 17  1  0  0  0
 16 41  1  0  0  0
 17 18  1  0  0  0
 17 26  1  0  0  0
 18 19  2  0  0  0
 18 42  1  0  0  0
 19 20  1  0  0  0
 20 21  1  0  0  0
 20 26  2  0  0  0
 21 22  1  0  0  0
 21 23  2  0  0  0
 22 43  1  0  0  0
 22 44  1  0  0  0
 23 24  1  0  0  0
 24 25  2  0  0  0
 24 45  1  0  0  0
 25 26  1  0  0  0
M  CHG  1   8  -1
M  END
> <s_m_entry_id>
43

> <s_m_entry_name>
6nw7_A_ligand

> <s_pdb_PDB_TITLE>
CRYSTAL STRUCTURE OF TRMD, A TRNA-(N1G37) METHYLTRANSFERASE, FROM MYCOBACTERIUM ABSCESSUS IN COMPLEX WITH S-ADENOSYL-L-HOMOCYSTEINE

> <s_pdb_PDB_ID>
6NW7

> <r_pdb_PDB_CRYST1_a>
75.334

> <r_pdb_PDB_CRYST1_b>
78.254

> <r_pdb_PDB_CRYST1_c>
88.005

> <r_pdb_PDB_CRYST1_alpha>
90

> <r_pdb_PDB_CRYST1_beta>
90

> <r_pdb_PDB_CRYST1_gamma>
90

> <s_pdb_PDB_CRYST1_Space_Group>
P 21 21 21

> <i_pdb_PDB_CRYST1_z>
8

> <s_pdb_PDB_CLASSIFICATION>
TRANSFERASE

> <s_pdb_PDB_DEPOSITION_DATE>
06-FEB-19

> <s_pdb_PDB_format_version>
3.30

> <r_pdb_PDB_R>
0.178

> <r_pdb_PDB_Rfree>
0.195

> <r_pdb_PDB_RESOLUTION>
1.48

> <s_pdb_PDB_EXPDTA>
X-RAY DIFFRACTION

> <r_pdb_PDB_EXPDTA_TEMPERATURE>
100

> <s_pdb_PDB_REMARK_350_Biomolecule_1_Transform_1_Chains>
A, B

> <s_pdb_PDB_REMARK_350_Biomolecule_1_Transform_1_Matrix_1>
1.000000 0.000000 0.000000   0.000000;0.000000 1.000000 0.000000   0.000000;0.000000 0.000000 1.000000   0.000000

> <s_ppw_entry_id_backup>
36

> <b_ppw_prepared>
1

> <s_ppw_prepared_with_version>
2021-1

> <b_ppw_assigned_bond_orders>
1

> <b_ppw_added_hydrogens>
1

> <b_ppw_treated_metals>
1

> <b_ppw_created_disulfur>
1

> <s_m_Chain_Name>
A

> <s_m_subgroup_title>
6nw7 - preprocessed_split_by_chain->6nw7 - preprocessed_chainA_split_by_structure

> <s_m_subgroupid>
6nw7 - preprocessed_split_by_chain->6nw7 - preprocessed_chainA_split_by_structure

> <b_m_subgroup_collapsed>
0

$$$$
