6QO6 - preprocessed_chainA_ligand
                    3D
 Schrodinger Suite 2021-1.
 19 20  0  0  1  0            999 V2000
  -18.0090   18.2100  -12.5470 N   0  0  0  0  0  0
  -18.5020   16.0280  -12.7360 N   0  0  0  0  0  0
  -17.4660   16.9670  -12.6910 C   0  0  0  0  0  0
  -19.6920   16.7010  -12.6170 C   0  0  0  0  0  0
  -19.3910   18.0900  -12.4940 C   0  0  0  0  0  0
  -20.4320   19.0460  -12.3520 C   0  0  0  0  0  0
  -21.7780   18.5870  -12.3340 C   0  0  0  0  0  0
  -22.0940   17.1770  -12.4610 C   0  0  0  0  0  0
  -21.0620   16.2420  -12.5910 C   0  0  0  0  0  0
  -22.8390   19.5080  -12.1870 O   0  0  0  0  0  0
  -22.3990   20.7940  -12.3590 C   0  0  0  0  0  0
  -17.4087   19.0207  -12.4976 H   0  0  0  0  0  0
  -16.3940   16.8495  -12.7496 H   0  0  0  0  0  0
  -20.1928   20.0952  -12.2607 H   0  0  0  0  0  0
  -23.1238   16.8517  -12.4550 H   0  0  0  0  0  0
  -21.2797   15.1872  -12.6715 H   0  0  0  0  0  0
  -23.2349   21.4834  -12.2408 H   0  0  0  0  0  0
  -21.6347   21.0196  -11.6153 H   0  0  0  0  0  0
  -21.9768   20.9036  -13.3579 H   0  0  0  0  0  0
  1  3  1  0  0  0
  1  5  1  0  0  0
  1 12  1  0  0  0
  2  3  2  0  0  0
  2  4  1  0  0  0
  3 13  1  0  0  0
  4  5  2  0  0  0
  4  9  1  0  0  0
  5  6  1  0  0  0
  6  7  2  0  0  0
  6 14  1  0  0  0
  7  8  1  0  0  0
  7 10  1  0  0  0
  8  9  2  0  0  0
  8 15  1  0  0  0
  9 16  1  0  0  0
 10 11  1  0  0  0
 11 17  1  0  0  0
 11 18  1  0  0  0
 11 19  1  0  0  0
M  END
> <s_m_entry_id>
137

> <s_m_entry_name>
pdb6qo6.ent.1_A_ligand

> <s_pdb_PDB_TITLE>
CRYSTAL STRUCTURE OF TRMD, A TRNA-(N1G37) METHYLTRANSFERASE, FROM MYCOBACTERIUM ABSCESSUS IN COMPLEX WITH FRAGMENT 4 (5- METHOXYBENZIMIDAZOLE)

> <s_pdb_PDB_ID>
6QO6

> <r_pdb_PDB_CRYST1_a>
74.077

> <r_pdb_PDB_CRYST1_b>
78.772

> <r_pdb_PDB_CRYST1_c>
86.324

> <r_pdb_PDB_CRYST1_alpha>
90

> <r_pdb_PDB_CRYST1_beta>
90

> <r_pdb_PDB_CRYST1_gamma>
90

> <s_pdb_PDB_CRYST1_Space_Group>
P 21 21 21

> <i_pdb_PDB_CRYST1_z>
8

> <s_pdb_PDB_CLASSIFICATION>
TRANSFERASE

> <s_pdb_PDB_DEPOSITION_DATE>
12-FEB-19

> <s_pdb_PDB_format_version>
3.30

> <r_pdb_PDB_R>
0.181

> <r_pdb_PDB_Rfree>
0.209

> <r_pdb_PDB_RESOLUTION>
1.75

> <s_pdb_PDB_EXPDTA>
X-RAY DIFFRACTION

> <r_pdb_PDB_EXPDTA_TEMPERATURE>
292

> <s_pdb_PDB_REMARK_350_Biomolecule_1_Transform_1_Chains>
A, B

> <s_pdb_PDB_REMARK_350_Biomolecule_1_Transform_1_Matrix_1>
1.000000 0.000000 0.000000   0.000000;0.000000 1.000000 0.000000   0.000000;0.000000 0.000000 1.000000   0.000000

> <s_m_Source_Path>
C:\Users\maila\Downloads\other-all-PDB

> <s_m_Source_File>
pdb6qo6.ent.gz

> <i_m_Source_File_Index>
1

> <s_ppw_entry_id_backup>
11

> <b_ppw_prepared>
1

> <s_ppw_prepared_with_version>
2021-1

> <b_ppw_assigned_bond_orders>
1

> <b_ppw_added_hydrogens>
1

> <b_ppw_treated_metals>
1

> <b_ppw_created_disulfur>
1

> <s_m_Chain_Name>
A

> <s_m_subgroup_title>
6QO6 - preprocessed_split_by_chain->6QO6 - preprocessed_chainA_split_by_structure

> <s_m_subgroupid>
6QO6 - preprocessed_split_by_chain->6QO6 - preprocessed_chainA_split_by_structure

> <b_m_subgroup_collapsed>
0

$$$$
