6QOF - preprocessed_chainA_ligand
                    3D
 Schrodinger Suite 2021-1.
 15 16  0  0  1  0            999 V2000
  -21.1020   19.4670  -12.4170 N   0  0  0  0  0  0
  -20.1940   20.4710  -12.4540 C   0  0  0  0  0  0
  -18.9500   19.9480  -12.5140 N   0  0  0  0  0  0
  -19.0630   18.5740  -12.5000 C   0  0  0  0  0  0
  -18.1310   17.4940  -12.5490 C   0  0  0  0  0  0
  -16.7250   17.6870  -12.6040 N   0  0  0  0  0  0
  -18.5970   16.2410  -12.5200 N   0  0  0  0  0  0
  -19.9230   15.9770  -12.4620 C   0  0  0  0  0  0
  -20.8320   16.9630  -12.4320 N   0  0  0  0  0  0
  -20.4120   18.2780  -12.4440 C   0  0  0  0  0  0
  -22.0886   19.6796  -12.3775 H   0  0  0  0  0  0
  -20.5245   21.4990  -12.4337 H   0  0  0  0  0  0
  -16.1067   16.8891  -12.6374 H   0  0  0  0  0  0
  -16.3435   18.6222  -12.6098 H   0  0  0  0  0  0
  -20.2695   14.9544  -12.4389 H   0  0  0  0  0  0
  1  2  1  0  0  0
  1 10  1  0  0  0
  1 11  1  0  0  0
  2  3  2  0  0  0
  2 12  1  0  0  0
  3  4  1  0  0  0
  4  5  1  0  0  0
  4 10  2  0  0  0
  5  6  1  0  0  0
  5  7  2  0  0  0
  6 13  1  0  0  0
  6 14  1  0  0  0
  7  8  1  0  0  0
  8  9  2  0  0  0
  8 15  1  0  0  0
  9 10  1  0  0  0
M  END
> <s_m_entry_id>
225

> <s_m_entry_name>
pdb6qof.ent.1_A_ligand

> <s_pdb_PDB_TITLE>
CRYSTAL STRUCTURE OF TRMD, A TRNA-(N1G37) METHYLTRANSFERASE, FROM MYCOBACTERIUM ABSCESSUS IN COMPLEX WITH FRAGMENT 9 (ADENINE)

> <s_pdb_PDB_ID>
6QOF

> <r_pdb_PDB_CRYST1_a>
73.688

> <r_pdb_PDB_CRYST1_b>
80.749

> <r_pdb_PDB_CRYST1_c>
82.971

> <r_pdb_PDB_CRYST1_alpha>
90

> <r_pdb_PDB_CRYST1_beta>
90

> <r_pdb_PDB_CRYST1_gamma>
90

> <s_pdb_PDB_CRYST1_Space_Group>
P 21 21 21

> <i_pdb_PDB_CRYST1_z>
8

> <s_pdb_PDB_CLASSIFICATION>
TRANSFERASE

> <s_pdb_PDB_DEPOSITION_DATE>
12-FEB-19

> <s_pdb_PDB_format_version>
3.30

> <r_pdb_PDB_R>
0.18

> <r_pdb_PDB_Rfree>
0.214

> <r_pdb_PDB_RESOLUTION>
1.76

> <s_pdb_PDB_EXPDTA>
X-RAY DIFFRACTION

> <r_pdb_PDB_EXPDTA_TEMPERATURE>
100

> <s_pdb_PDB_REMARK_350_Biomolecule_1_Transform_1_Chains>
A, B

> <s_pdb_PDB_REMARK_350_Biomolecule_1_Transform_1_Matrix_1>
1.000000 0.000000 0.000000   0.000000;0.000000 1.000000 0.000000   0.000000;0.000000 0.000000 1.000000   0.000000

> <s_m_Source_Path>
C:\Users\maila\Downloads\other-all-PDB

> <s_m_Source_File>
pdb6qof.ent.gz

> <i_m_Source_File_Index>
1

> <s_ppw_entry_id_backup>
16

> <b_ppw_prepared>
1

> <s_ppw_prepared_with_version>
2021-1

> <b_ppw_assigned_bond_orders>
1

> <b_ppw_added_hydrogens>
1

> <b_ppw_treated_metals>
1

> <b_ppw_created_disulfur>
1

> <s_m_Chain_Name>
A

> <s_m_subgroup_title>
6QOF - preprocessed_split_by_chain->6QOF - preprocessed_chainA_split_by_structure

> <s_m_subgroupid>
6QOF - preprocessed_split_by_chain->6QOF - preprocessed_chainA_split_by_structure

> <b_m_subgroup_collapsed>
0

$$$$
