6QOG_chainA - preprocessed_ligand
                    3D
 Schrodinger Suite 2021-1.
 16 17  0  0  1  0            999 V2000
  -13.1610    8.8050  -26.7910 C   0  0  0  0  0  0
  -13.1930    7.2330  -30.6970 Br  0  0  0  0  0  0
  -13.0040    8.3760  -29.1730 C   0  0  0  0  0  0
  -12.5410    9.6690  -29.3700 C   0  0  0  0  0  0
  -12.3910   10.5240  -28.2770 C   0  0  0  0  0  0
  -12.7000   10.0860  -26.9850 C   0  0  0  0  0  0
  -12.6440   10.8150  -25.4040 S   0  0  0  0  0  0
  -13.2290    9.4110  -24.5650 C   0  0  0  0  0  0
  -13.4430    9.2910  -23.1710 N   0  0  0  0  0  0
  -13.4310    8.4650  -25.4880 N   0  0  0  0  0  0
  -13.3130    7.9270  -27.9040 C   0  0  0  0  0  0
  -12.2985   10.0099  -30.3657 H   0  0  0  0  0  0
  -12.0339   11.5324  -28.4253 H   0  0  0  0  0  0
  -13.7880    8.4234  -22.7859 H   0  0  0  0  0  0
  -13.2507   10.0730  -22.5614 H   0  0  0  0  0  0
  -13.6677    6.9183  -27.7516 H   0  0  0  0  0  0
  1  6  1  0  0  0
  1 10  1  0  0  0
  1 11  2  0  0  0
  2  3  1  0  0  0
  3  4  2  0  0  0
  3 11  1  0  0  0
  4  5  1  0  0  0
  4 12  1  0  0  0
  5  6  2  0  0  0
  5 13  1  0  0  0
  6  7  1  0  0  0
  7  8  1  0  0  0
  8  9  1  0  0  0
  8 10  2  0  0  0
  9 14  1  0  0  0
  9 15  1  0  0  0
 11 16  1  0  0  0
M  END
> <s_m_entry_id>
230

> <s_m_entry_name>
pdb6qog.ent.1_A_ligand

> <s_pdb_PDB_TITLE>
CRYSTAL STRUCTURE OF TRMD, A TRNA-(N1G37) METHYLTRANSFERASE, FROM MYCOBACTERIUM ABSCESSUS IN COMPLEX WITH FRAGMENT 10 (2-AMINO-5- BROMOBENZOTHIAZOLE)

> <s_pdb_PDB_ID>
6QOG

> <r_pdb_PDB_CRYST1_a>
73.75

> <r_pdb_PDB_CRYST1_b>
78.513

> <r_pdb_PDB_CRYST1_c>
86.707

> <r_pdb_PDB_CRYST1_alpha>
90

> <r_pdb_PDB_CRYST1_beta>
90

> <r_pdb_PDB_CRYST1_gamma>
90

> <s_pdb_PDB_CRYST1_Space_Group>
P 21 21 21

> <i_pdb_PDB_CRYST1_z>
8

> <s_pdb_PDB_CLASSIFICATION>
TRANSFERASE

> <s_pdb_PDB_DEPOSITION_DATE>
12-FEB-19

> <s_pdb_PDB_format_version>
3.30

> <r_pdb_PDB_R>
0.179

> <r_pdb_PDB_Rfree>
0.201

> <r_pdb_PDB_RESOLUTION>
1.55

> <s_pdb_PDB_EXPDTA>
X-RAY DIFFRACTION

> <r_pdb_PDB_EXPDTA_TEMPERATURE>
100

> <s_pdb_PDB_REMARK_350_Biomolecule_1_Transform_1_Chains>
A, B

> <s_pdb_PDB_REMARK_350_Biomolecule_1_Transform_1_Matrix_1>
1.000000 0.000000 0.000000   0.000000;0.000000 1.000000 0.000000   0.000000;0.000000 0.000000 1.000000   0.000000

> <s_m_Source_Path>
C:\Users\maila\Downloads\other-all-PDB

> <s_m_Source_File>
pdb6qog.ent.gz

> <i_m_Source_File_Index>
1

> <s_ppw_entry_id_backup>
227

> <b_ppw_prepared>
1

> <s_ppw_prepared_with_version>
2021-1

> <b_ppw_assigned_bond_orders>
1

> <b_ppw_added_hydrogens>
1

> <b_ppw_treated_metals>
1

> <b_ppw_created_disulfur>
1

> <s_m_Chain_Name>
A

> <s_ppw_group_name_backup>
6QOG_split_by_chain

> <s_m_subgroup_title>
6QOG_split_by_chain->6QOG_chainA - preprocessed_split_by_structure

> <s_m_subgroupid>
6QOG_split_by_chain->6QOG_chainA - preprocessed_split_by_structure

> <b_m_subgroup_collapsed>
0

$$$$
