6QOL - preprocessed_chainA_ligand
                    3D
 Schrodinger Suite 2021-1.
 18 19  0  0  1  0            999 V2000
  -20.9980   18.0210  -12.3230 C   0  0  0  0  0  0
  -24.6490   18.5840  -11.6350 N   0  0  0  0  0  0
  -23.2810   18.8240  -11.9240 C   0  0  0  0  0  0
  -22.8400   20.1380  -12.0660 C   0  0  0  0  0  0
  -21.5000   20.3910  -12.3330 C   0  0  0  0  0  0
  -20.5720   19.3100  -12.4600 C   0  0  0  0  0  0
  -19.2430   19.5860  -12.7200 N   0  0  0  0  0  0
  -18.3570   18.5670  -12.8430 C   0  0  0  0  0  0
  -18.7920   17.2380  -12.7080 C   0  0  0  0  0  0
  -20.0950   16.9760  -12.4520 N   0  0  0  0  0  0
  -22.3790   17.7610  -12.0530 C   0  0  0  0  0  0
  -24.9842   17.6372  -11.5291 H   0  0  0  0  0  0
  -25.2877   19.3600  -11.5351 H   0  0  0  0  0  0
  -23.5388   20.9557  -11.9685 H   0  0  0  0  0  0
  -21.1545   21.4080  -12.4457 H   0  0  0  0  0  0
  -17.3170   18.7771  -13.0447 H   0  0  0  0  0  0
  -18.0869   16.4262  -12.8085 H   0  0  0  0  0  0
  -22.7266   16.7438  -11.9485 H   0  0  0  0  0  0
  1  6  2  0  0  0
  1 10  1  0  0  0
  1 11  1  0  0  0
  2  3  1  0  0  0
  2 12  1  0  0  0
  2 13  1  0  0  0
  3  4  1  0  0  0
  3 11  2  0  0  0
  4  5  2  0  0  0
  4 14  1  0  0  0
  5  6  1  0  0  0
  5 15  1  0  0  0
  6  7  1  0  0  0
  7  8  2  0  0  0
  8  9  1  0  0  0
  8 16  1  0  0  0
  9 10  2  0  0  0
  9 17  1  0  0  0
 11 18  1  0  0  0
M  END
> <s_m_entry_id>
255

> <s_m_entry_name>
pdb6qol.ent.1_A_ligand

> <s_pdb_PDB_TITLE>
CRYSTAL STRUCTURE OF TRMD, A TRNA-(N1G37) METHYLTRANSFERASE, FROM MYCOBACTERIUM ABSCESSUS IN COMPLEX WITH FRAGMENT 15 (6- QUINOXALINAMINE)

> <s_pdb_PDB_ID>
6QOL

> <r_pdb_PDB_CRYST1_a>
74.008

> <r_pdb_PDB_CRYST1_b>
78.608

> <r_pdb_PDB_CRYST1_c>
86.729

> <r_pdb_PDB_CRYST1_alpha>
90

> <r_pdb_PDB_CRYST1_beta>
90

> <r_pdb_PDB_CRYST1_gamma>
90

> <s_pdb_PDB_CRYST1_Space_Group>
P 21 21 21

> <i_pdb_PDB_CRYST1_z>
8

> <s_pdb_PDB_CLASSIFICATION>
TRANSFERASE

> <s_pdb_PDB_DEPOSITION_DATE>
12-FEB-19

> <s_pdb_PDB_format_version>
3.30

> <r_pdb_PDB_R>
0.186

> <r_pdb_PDB_Rfree>
0.214

> <r_pdb_PDB_RESOLUTION>
1.9

> <s_pdb_PDB_EXPDTA>
X-RAY DIFFRACTION

> <r_pdb_PDB_EXPDTA_TEMPERATURE>
100

> <s_pdb_PDB_REMARK_350_Biomolecule_1_Transform_1_Chains>
A, B

> <s_pdb_PDB_REMARK_350_Biomolecule_1_Transform_1_Matrix_1>
1.000000 0.000000 0.000000   0.000000;0.000000 1.000000 0.000000   0.000000;0.000000 0.000000 1.000000   0.000000

> <s_m_Source_Path>
C:\Users\maila\Downloads\other-all-PDB

> <s_m_Source_File>
pdb6qol.ent.gz

> <i_m_Source_File_Index>
1

> <s_ppw_entry_id_backup>
22

> <b_ppw_prepared>
1

> <s_ppw_prepared_with_version>
2021-1

> <b_ppw_assigned_bond_orders>
1

> <b_ppw_added_hydrogens>
1

> <b_ppw_treated_metals>
1

> <b_ppw_created_disulfur>
1

> <s_m_Chain_Name>
A

> <s_m_subgroup_title>
6QOL - preprocessed_split_by_chain->6QOL - preprocessed_chainA_split_by_structure

> <s_m_subgroupid>
6QOL - preprocessed_split_by_chain->6QOL - preprocessed_chainA_split_by_structure

> <b_m_subgroup_collapsed>
0

$$$$
