6QON - preprocessed_chainA_ligand
                    3D
 Schrodinger Suite 2021-1.
 17 18  0  0  1  0            999 V2000
  -19.8720  -18.6920   12.5250 C   0  0  0  0  0  0
  -19.4720  -17.4160   12.7120 N   0  0  0  0  0  0
  -20.0030  -15.2490   12.9200 O   0  0  0  0  0  0
  -20.3720  -16.3980   12.7520 C   0  0  0  0  0  0
  -21.7040  -16.6660   12.6060 O   0  0  0  0  0  0
  -22.1580  -17.9640   12.3780 C   0  0  0  0  0  0
  -23.5430  -18.2410   12.1750 C   0  0  0  0  0  0
  -23.9830  -19.5340   11.9440 C   0  0  0  0  0  0
  -23.0470  -20.5620   11.9230 C   0  0  0  0  0  0
  -21.6940  -20.3070   12.1090 C   0  0  0  0  0  0
  -21.2520  -18.9730   12.3440 C   0  0  0  0  0  0
  -19.0530  -19.5930   12.4830 O   0  0  0  0  0  0
  -18.4906  -17.2058   12.8248 H   0  0  0  0  0  0
  -24.2638  -17.4372   12.2003 H   0  0  0  0  0  0
  -25.0337  -19.7265   11.7850 H   0  0  0  0  0  0
  -23.3671  -21.5805   11.7599 H   0  0  0  0  0  0
  -20.9819  -21.1183   12.0752 H   0  0  0  0  0  0
  1  2  1  0  0  0
  1 11  1  0  0  0
  1 12  2  0  0  0
  2  4  1  0  0  0
  2 13  1  0  0  0
  3  4  2  0  0  0
  4  5  1  0  0  0
  5  6  1  0  0  0
  6  7  2  0  0  0
  6 11  1  0  0  0
  7  8  1  0  0  0
  7 14  1  0  0  0
  8  9  2  0  0  0
  8 15  1  0  0  0
  9 10  1  0  0  0
  9 16  1  0  0  0
 10 11  2  0  0  0
 10 17  1  0  0  0
M  END
> <s_m_entry_id>
266

> <s_m_entry_name>
pdb6qon.ent.1_A_ligand

> <s_pdb_PDB_TITLE>
CRYSTAL STRUCTURE OF TRMD, A TRNA-(N1G37) METHYLTRANSFERASE, FROM MYCOBACTERIUM ABSCESSUS IN COMPLEX WITH FRAGMENT 17 (2H-1,3- BENZOXAZINE-2,4(3H)-DIONE)

> <s_pdb_PDB_ID>
6QON

> <r_pdb_PDB_CRYST1_a>
74.02

> <r_pdb_PDB_CRYST1_b>
78.919

> <r_pdb_PDB_CRYST1_c>
86.836

> <r_pdb_PDB_CRYST1_alpha>
90

> <r_pdb_PDB_CRYST1_beta>
90

> <r_pdb_PDB_CRYST1_gamma>
90

> <s_pdb_PDB_CRYST1_Space_Group>
P 21 21 21

> <i_pdb_PDB_CRYST1_z>
8

> <s_pdb_PDB_CLASSIFICATION>
TRANSFERASE

> <s_pdb_PDB_DEPOSITION_DATE>
12-FEB-19

> <s_pdb_PDB_format_version>
3.30

> <r_pdb_PDB_R>
0.175

> <r_pdb_PDB_Rfree>
0.206

> <r_pdb_PDB_RESOLUTION>
1.81

> <s_pdb_PDB_EXPDTA>
X-RAY DIFFRACTION

> <r_pdb_PDB_EXPDTA_TEMPERATURE>
100

> <s_pdb_PDB_REMARK_350_Biomolecule_1_Transform_1_Chains>
A, B

> <s_pdb_PDB_REMARK_350_Biomolecule_1_Transform_1_Matrix_1>
1.000000 0.000000 0.000000   0.000000;0.000000 1.000000 0.000000   0.000000;0.000000 0.000000 1.000000   0.000000

> <s_m_Source_Path>
C:\Users\maila\Downloads\other-all-PDB

> <s_m_Source_File>
pdb6qon.ent.gz

> <i_m_Source_File_Index>
1

> <s_ppw_entry_id_backup>
24

> <b_ppw_prepared>
1

> <s_ppw_prepared_with_version>
2021-1

> <b_ppw_assigned_bond_orders>
1

> <b_ppw_added_hydrogens>
1

> <b_ppw_treated_metals>
1

> <b_ppw_created_disulfur>
1

> <s_m_Chain_Name>
A

> <s_m_subgroup_title>
6QON - preprocessed_split_by_chain->6QON - preprocessed_chainA_split_by_structure

> <s_m_subgroupid>
6QON - preprocessed_split_by_chain->6QON - preprocessed_chainA_split_by_structure

> <b_m_subgroup_collapsed>
0

$$$$
