6QOQ - preprocessed_chainA_ligand
                    3D
 Schrodinger Suite 2021-1.
 16 17  0  0  1  0            999 V2000
  -23.9370  -19.5430   11.3920 C   0  0  0  0  0  0
  -25.3610  -21.0720   10.1160 N   0  0  0  0  0  0
  -24.1620  -20.8060   10.8320 C   0  0  0  0  0  0
  -23.2040  -21.8090   10.9750 C   0  0  0  0  0  0
  -22.0350  -21.5630   11.6660 C   0  0  0  0  0  0
  -21.8040  -20.2800   12.2350 C   0  0  0  0  0  0
  -20.6660  -19.9510   12.9350 N   0  0  0  0  0  0
  -20.6230  -18.6980   13.3960 C   0  0  0  0  0  0
  -22.0880  -17.9090   12.9160 S   0  0  0  0  0  0
  -22.7500  -19.2920   12.0930 C   0  0  0  0  0  0
  -24.6775  -18.7644   11.2833 H   0  0  0  0  0  0
  -25.5173  -21.9854    9.7143 H   0  0  0  0  0  0
  -26.0566  -20.3475   10.0090 H   0  0  0  0  0  0
  -23.3749  -22.7844   10.5439 H   0  0  0  0  0  0
  -21.2971  -22.3441   11.7741 H   0  0  0  0  0  0
  -19.7653  -18.3584   13.9577 H   0  0  0  0  0  0
  1  3  1  0  0  0
  1 10  2  0  0  0
  1 11  1  0  0  0
  2  3  1  0  0  0
  2 12  1  0  0  0
  2 13  1  0  0  0
  3  4  2  0  0  0
  4  5  1  0  0  0
  4 14  1  0  0  0
  5  6  2  0  0  0
  5 15  1  0  0  0
  6  7  1  0  0  0
  6 10  1  0  0  0
  7  8  2  0  0  0
  8  9  1  0  0  0
  8 16  1  0  0  0
  9 10  1  0  0  0
M  END
> <s_m_entry_id>
281

> <s_m_entry_name>
pdb6qoq.ent.1_A_ligand

> <s_pdb_PDB_TITLE>
CRYSTAL STRUCTURE OF TRMD, A TRNA-(N1G37) METHYLTRANSFERASE, FROM MYCOBACTERIUM ABSCESSUS IN COMPLEX WITH FRAGMENT 20 (6- AMINOBENZOTHIAZOLE)

> <s_pdb_PDB_ID>
6QOQ

> <r_pdb_PDB_CRYST1_a>
74.048

> <r_pdb_PDB_CRYST1_b>
78.489

> <r_pdb_PDB_CRYST1_c>
86.472

> <r_pdb_PDB_CRYST1_alpha>
90

> <r_pdb_PDB_CRYST1_beta>
90

> <r_pdb_PDB_CRYST1_gamma>
90

> <s_pdb_PDB_CRYST1_Space_Group>
P 21 21 21

> <i_pdb_PDB_CRYST1_z>
8

> <s_pdb_PDB_CLASSIFICATION>
TRANSFERASE

> <s_pdb_PDB_DEPOSITION_DATE>
12-FEB-19

> <s_pdb_PDB_format_version>
3.30

> <r_pdb_PDB_R>
0.172

> <r_pdb_PDB_Rfree>
0.193

> <r_pdb_PDB_RESOLUTION>
1.67

> <s_pdb_PDB_EXPDTA>
X-RAY DIFFRACTION

> <r_pdb_PDB_EXPDTA_TEMPERATURE>
100

> <s_pdb_PDB_REMARK_350_Biomolecule_1_Transform_1_Chains>
A, B

> <s_pdb_PDB_REMARK_350_Biomolecule_1_Transform_1_Matrix_1>
1.000000 0.000000 0.000000   0.000000;0.000000 1.000000 0.000000   0.000000;0.000000 0.000000 1.000000   0.000000

> <s_m_Source_Path>
C:\Users\maila\Downloads\other-all-PDB

> <s_m_Source_File>
pdb6qoq.ent.gz

> <i_m_Source_File_Index>
1

> <s_ppw_entry_id_backup>
27

> <b_ppw_prepared>
1

> <s_ppw_prepared_with_version>
2021-1

> <b_ppw_assigned_bond_orders>
1

> <b_ppw_added_hydrogens>
1

> <b_ppw_treated_metals>
1

> <b_ppw_created_disulfur>
1

> <s_m_Chain_Name>
A

> <s_m_subgroup_title>
6QOQ - preprocessed_split_by_chain->6QOQ - preprocessed_chainA_split_by_structure

> <s_m_subgroupid>
6QOQ - preprocessed_split_by_chain->6QOQ - preprocessed_chainA_split_by_structure

> <b_m_subgroup_collapsed>
0

$$$$
