6QOS - preprocessed_chainA_ligand
                    3D
 Schrodinger Suite 2021-1.
 18 18  0  0  1  0            999 V2000
  -18.2830  -16.2190   12.5790 N   0  0  0  0  0  0
  -17.6920  -18.3520   12.5500 C   0  0  0  0  0  0
  -19.4180  -16.9340   12.4470 C   0  0  0  0  0  0
  -17.2370  -17.0850   12.6370 N   0  0  0  0  0  0
  -23.5100  -19.9250   11.4290 C   0  0  0  0  0  0
  -21.4060  -19.2350   12.2180 O   0  0  0  0  0  0
  -22.2160  -20.3930   12.0560 C   0  0  0  0  0  0
  -20.0230  -19.4740   12.2970 C   0  0  0  0  0  0
  -19.0820  -18.2910   12.4300 C   0  0  0  0  0  0
  -19.5830  -20.6220   12.2780 O   0  0  0  0  0  0
  -18.3230  -15.2105   12.6175 H   0  0  0  0  0  0
  -16.9974  -19.1785   12.5804 H   0  0  0  0  0  0
  -20.3696  -16.4283   12.3758 H   0  0  0  0  0  0
  -24.1723  -20.7781   11.2816 H   0  0  0  0  0  0
  -23.9917  -19.2009   12.0861 H   0  0  0  0  0  0
  -23.3001  -19.4582   10.4667 H   0  0  0  0  0  0
  -21.7190  -21.0915   11.3827 H   0  0  0  0  0  0
  -22.4238  -20.8293   13.0330 H   0  0  0  0  0  0
  1  3  1  0  0  0
  1  4  1  0  0  0
  1 11  1  0  0  0
  2  4  2  0  0  0
  2  9  1  0  0  0
  2 12  1  0  0  0
  3  9  2  0  0  0
  3 13  1  0  0  0
  5  7  1  0  0  0
  5 14  1  0  0  0
  5 15  1  0  0  0
  5 16  1  0  0  0
  6  7  1  0  0  0
  6  8  1  0  0  0
  7 17  1  0  0  0
  7 18  1  0  0  0
  8  9  1  0  0  0
  8 10  2  0  0  0
M  END
> <s_m_entry_id>
291

> <s_m_entry_name>
pdb6qos.ent.1_A_ligand

> <s_pdb_PDB_TITLE>
CRYSTAL STRUCTURE OF TRMD, A TRNA-(N1G37) METHYLTRANSFERASE, FROM MYCOBACTERIUM ABSCESSUS IN COMPLEX WITH FRAGMENT 22 (ETHYL 1H- PYRAZOLE-4-CARBOXYLATE)

> <s_pdb_PDB_ID>
6QOS

> <r_pdb_PDB_CRYST1_a>
74.913

> <r_pdb_PDB_CRYST1_b>
81.357

> <r_pdb_PDB_CRYST1_c>
84.754

> <r_pdb_PDB_CRYST1_alpha>
90

> <r_pdb_PDB_CRYST1_beta>
90

> <r_pdb_PDB_CRYST1_gamma>
90

> <s_pdb_PDB_CRYST1_Space_Group>
P 21 21 21

> <i_pdb_PDB_CRYST1_z>
8

> <s_pdb_PDB_CLASSIFICATION>
TRANSFERASE

> <s_pdb_PDB_DEPOSITION_DATE>
12-FEB-19

> <s_pdb_PDB_format_version>
3.30

> <r_pdb_PDB_R>
0.191

> <r_pdb_PDB_Rfree>
0.229

> <r_pdb_PDB_RESOLUTION>
2.05

> <s_pdb_PDB_EXPDTA>
X-RAY DIFFRACTION

> <r_pdb_PDB_EXPDTA_TEMPERATURE>
100

> <s_pdb_PDB_REMARK_350_Biomolecule_1_Transform_1_Chains>
A, B

> <s_pdb_PDB_REMARK_350_Biomolecule_1_Transform_1_Matrix_1>
1.000000 0.000000 0.000000   0.000000;0.000000 1.000000 0.000000   0.000000;0.000000 0.000000 1.000000   0.000000

> <s_m_Source_Path>
C:\Users\maila\Downloads\other-all-PDB

> <s_m_Source_File>
pdb6qos.ent.gz

> <i_m_Source_File_Index>
1

> <s_ppw_entry_id_backup>
29

> <b_ppw_prepared>
1

> <s_ppw_prepared_with_version>
2021-1

> <b_ppw_assigned_bond_orders>
1

> <b_ppw_added_hydrogens>
1

> <b_ppw_treated_metals>
1

> <b_ppw_created_disulfur>
1

> <s_m_Chain_Name>
A

> <s_m_subgroup_title>
6QOS - preprocessed_split_by_chain->6QOS - preprocessed_chainA_split_by_structure

> <s_m_subgroupid>
6QOS - preprocessed_split_by_chain->6QOS - preprocessed_chainA_split_by_structure

> <b_m_subgroup_collapsed>
0

$$$$
