6QOT - preprocessed_chainA_ligand
                    3D
 Schrodinger Suite 2021-1.
 25 26  0  0  1  0            999 V2000
  -25.6860   22.6190  -10.4260 C   0  0  0  0  0  0
  -24.5540   20.7690  -11.4560 C   0  0  0  0  0  0
  -24.4950   19.3900  -11.6810 C   0  0  0  0  0  0
  -23.4090   21.5470  -11.5910 C   0  0  0  0  0  0
  -20.7810   18.9470  -12.5180 C   0  0  0  0  0  0
  -20.4010   17.6240  -12.4000 C   0  0  0  0  0  0
  -19.0560   17.5610  -12.7490 C   0  0  0  0  0  0
  -18.2410   16.3970  -12.7850 N   0  0  0  0  0  0
  -18.6470   18.8230  -13.0370 N   0  0  0  0  0  0
  -19.7060   19.6490  -12.8790 N   0  0  0  0  0  0
  -22.1410   19.5650  -12.1870 C   0  0  0  0  0  0
  -23.2860   18.7780  -12.0450 C   0  0  0  0  0  0
  -22.1950   20.9350  -11.9430 C   0  0  0  0  0  0
  -25.7800   21.3690  -11.0980 O   0  0  0  0  0  0
  -26.6869   22.9866  -10.1997 H   0  0  0  0  0  0
  -25.1277   22.4924   -9.4985 H   0  0  0  0  0  0
  -25.1713   23.3373  -11.0641 H   0  0  0  0  0  0
  -25.3847   18.7870  -11.5749 H   0  0  0  0  0  0
  -23.4579   22.6131  -11.4254 H   0  0  0  0  0  0
  -21.1195   16.8818  -12.0848 H   0  0  0  0  0  0
  -17.2704   16.4683  -13.0550 H   0  0  0  0  0  0
  -18.6325   15.4986  -12.5405 H   0  0  0  0  0  0
  -17.6901   18.9935  -13.3114 H   0  0  0  0  0  0
  -23.2493   17.7115  -12.2115 H   0  0  0  0  0  0
  -21.2958   21.5273  -12.0259 H   0  0  0  0  0  0
  1 14  1  0  0  0
  1 15  1  0  0  0
  1 16  1  0  0  0
  1 17  1  0  0  0
  2  3  2  0  0  0
  2  4  1  0  0  0
  2 14  1  0  0  0
  3 12  1  0  0  0
  3 18  1  0  0  0
  4 13  2  0  0  0
  4 19  1  0  0  0
  5  6  1  0  0  0
  5 10  2  0  0  0
  5 11  1  0  0  0
  6  7  2  0  0  0
  6 20  1  0  0  0
  7  8  1  0  0  0
  7  9  1  0  0  0
  8 21  1  0  0  0
  8 22  1  0  0  0
  9 10  1  0  0  0
  9 23  1  0  0  0
 11 12  2  0  0  0
 11 13  1  0  0  0
 12 24  1  0  0  0
 13 25  1  0  0  0
M  END
> <s_m_entry_id>
142

> <s_m_entry_name>
pdb6qot.ent.1_A_ligand

> <s_pdb_PDB_TITLE>
CRYSTAL STRUCTURE OF TRMD, A TRNA-(N1G37) METHYLTRANSFERASE, FROM MYCOBACTERIUM ABSCESSUS IN COMPLEX WITH FRAGMENT 23 (3-AMINO-5-(4- METHOXYPHENYL)PYRAZOLE)

> <s_pdb_PDB_ID>
6QOT

> <r_pdb_PDB_CRYST1_a>
75.291

> <r_pdb_PDB_CRYST1_b>
78.925

> <r_pdb_PDB_CRYST1_c>
87.458

> <r_pdb_PDB_CRYST1_alpha>
90

> <r_pdb_PDB_CRYST1_beta>
90

> <r_pdb_PDB_CRYST1_gamma>
90

> <s_pdb_PDB_CRYST1_Space_Group>
P 21 21 21

> <i_pdb_PDB_CRYST1_z>
8

> <s_pdb_PDB_CLASSIFICATION>
TRANSFERASE

> <s_pdb_PDB_DEPOSITION_DATE>
12-FEB-19

> <s_pdb_PDB_format_version>
3.30

> <r_pdb_PDB_R>
0.183

> <r_pdb_PDB_Rfree>
0.214

> <r_pdb_PDB_RESOLUTION>
1.62

> <s_pdb_PDB_EXPDTA>
X-RAY DIFFRACTION

> <r_pdb_PDB_EXPDTA_TEMPERATURE>
100

> <s_pdb_PDB_REMARK_350_Biomolecule_1_Transform_1_Chains>
A, B

> <s_pdb_PDB_REMARK_350_Biomolecule_1_Transform_1_Matrix_1>
1.000000 0.000000 0.000000   0.000000;0.000000 1.000000 0.000000   0.000000;0.000000 0.000000 1.000000   0.000000

> <s_m_Source_Path>
C:\Users\maila\AppData\Local\Temp\7zE0C379B6C

> <s_m_Source_File>
pdb6qot.ent.gz

> <i_m_Source_File_Index>
1

> <s_ppw_entry_id_backup>
62

> <b_ppw_prepared>
1

> <s_ppw_prepared_with_version>
2021-1

> <b_ppw_assigned_bond_orders>
1

> <b_ppw_added_hydrogens>
1

> <b_ppw_treated_metals>
1

> <b_ppw_created_disulfur>
1

> <s_m_Chain_Name>
A

> <s_m_subgroup_title>
6QOT - preprocessed_split_by_chain->6QOT - preprocessed_chainA_split_by_structure

> <s_m_subgroupid>
6QOT - preprocessed_split_by_chain->6QOT - preprocessed_chainA_split_by_structure

> <b_m_subgroup_collapsed>
0

$$$$
