6QOW - preprocessed_chainA_ligand
                    3D
 Schrodinger Suite 2021-1.
 20 21  0  0  1  0            999 V2000
  -20.4800  -17.8590   12.6570 C   0  0  0  0  0  0
  -25.7040  -22.1270   10.3600 C   0  0  0  0  0  0
  -25.5820  -20.9050   11.0660 O   0  0  0  0  0  0
  -24.2760  -20.5100   11.4040 C   0  0  0  0  0  0
  -23.2350  -21.4330   11.4350 C   0  0  0  0  0  0
  -21.9520  -21.0190   11.7720 C   0  0  0  0  0  0
  -21.7100  -19.6660   12.0810 C   0  0  0  0  0  0
  -22.7580  -18.7550   12.0480 C   0  0  0  0  0  0
  -24.0500  -19.1730   11.7130 C   0  0  0  0  0  0
  -22.0780  -17.2230   12.4900 S   0  0  0  0  0  0
  -20.4680  -19.1740   12.4110 N   0  0  0  0  0  0
  -19.3490  -16.9450   13.0070 C   0  0  0  0  0  0
  -18.1480  -17.3470   13.0690 O   0  0  0  0  0  0
  -19.6500  -15.7310   13.1040 O   0  5  0  0  0  0
  -26.7561  -22.3257   10.1557 H   0  0  0  0  0  0
  -25.1581  -22.0596    9.4190 H   0  0  0  0  0  0
  -25.2918  -22.9373   10.9613 H   0  0  0  0  0  0
  -23.4249  -22.4693   11.1974 H   0  0  0  0  0  0
  -21.1429  -21.7339   11.7966 H   0  0  0  0  0  0
  -24.8682  -18.4683   11.6929 H   0  0  0  0  0  0
  1 10  1  0  0  0
  1 11  2  0  0  0
  1 12  1  0  0  0
  2  3  1  0  0  0
  2 15  1  0  0  0
  2 16  1  0  0  0
  2 17  1  0  0  0
  3  4  1  0  0  0
  4  5  2  0  0  0
  4  9  1  0  0  0
  5  6  1  0  0  0
  5 18  1  0  0  0
  6  7  2  0  0  0
  6 19  1  0  0  0
  7  8  1  0  0  0
  7 11  1  0  0  0
  8  9  2  0  0  0
  8 10  1  0  0  0
  9 20  1  0  0  0
 12 13  2  0  0  0
 12 14  1  0  0  0
M  CHG  1  14  -1
M  END
> <s_m_entry_id>
306

> <s_m_entry_name>
pdb6qow.ent.1_A_ligand

> <s_pdb_PDB_TITLE>
CRYSTAL STRUCTURE OF TRMD, A TRNA-(N1G37) METHYLTRANSFERASE, FROM MYCOBACTERIUM ABSCESSUS IN COMPLEX WITH FRAGMENT 26 (6- METHOXYBENZOTHIAZOLE-2-CARBOXYLIC ACID)

> <s_pdb_PDB_ID>
6QOW

> <r_pdb_PDB_CRYST1_a>
75.693

> <r_pdb_PDB_CRYST1_b>
78.16

> <r_pdb_PDB_CRYST1_c>
88.152

> <r_pdb_PDB_CRYST1_alpha>
90

> <r_pdb_PDB_CRYST1_beta>
90

> <r_pdb_PDB_CRYST1_gamma>
90

> <s_pdb_PDB_CRYST1_Space_Group>
P 21 21 21

> <i_pdb_PDB_CRYST1_z>
8

> <s_pdb_PDB_CLASSIFICATION>
TRANSFERASE

> <s_pdb_PDB_DEPOSITION_DATE>
12-FEB-19

> <s_pdb_PDB_format_version>
3.30

> <r_pdb_PDB_R>
0.179

> <r_pdb_PDB_Rfree>
0.2

> <r_pdb_PDB_RESOLUTION>
1.53

> <s_pdb_PDB_EXPDTA>
X-RAY DIFFRACTION

> <r_pdb_PDB_EXPDTA_TEMPERATURE>
100

> <s_pdb_PDB_REMARK_350_Biomolecule_1_Transform_1_Chains>
A, B

> <s_pdb_PDB_REMARK_350_Biomolecule_1_Transform_1_Matrix_1>
1.000000 0.000000 0.000000   0.000000;0.000000 1.000000 0.000000   0.000000;0.000000 0.000000 1.000000   0.000000

> <s_m_Source_Path>
C:\Users\maila\Downloads\other-all-PDB

> <s_m_Source_File>
pdb6qow.ent.gz

> <i_m_Source_File_Index>
1

> <s_ppw_entry_id_backup>
32

> <b_ppw_prepared>
1

> <s_ppw_prepared_with_version>
2021-1

> <b_ppw_assigned_bond_orders>
1

> <b_ppw_added_hydrogens>
1

> <b_ppw_treated_metals>
1

> <b_ppw_created_disulfur>
1

> <s_m_Chain_Name>
A

> <s_m_subgroup_title>
6QOW - preprocessed_split_by_chain->6QOW - preprocessed_chainA_split_by_structure

> <s_m_subgroupid>
6QOW - preprocessed_split_by_chain->6QOW - preprocessed_chainA_split_by_structure

> <b_m_subgroup_collapsed>
0

$$$$
