6QQR - preprocessed_chainB_ligand
                    3D
 Schrodinger Suite 2021-1.
 20 21  0  0  1  0            999 V2000
  -13.2190   -8.3340   23.9180 O   0  0  0  0  0  0
  -13.0730   -9.5800   24.5830 B   0  0  0  0  0  0
  -12.3550  -10.5990   23.9160 O   0  0  0  0  0  0
  -12.8480   -9.4990   26.1930 C   0  0  0  0  0  0
  -13.1700   -8.3280   26.8830 C   0  0  0  0  0  0
  -12.9430   -8.2780   28.2820 C   0  0  0  0  0  0
  -12.4070   -9.3700   28.9340 C   0  0  0  0  0  0
  -12.0740  -10.5590   28.2130 C   0  0  0  0  0  0
  -12.2950  -10.6080   26.8550 C   0  0  0  0  0  0
  -12.2830   -9.0720   30.2680 N   0  0  0  0  0  0
  -12.7200   -7.8380   30.5120 C   0  0  0  0  0  0
  -13.1450   -7.2860   29.3040 C   0  0  0  0  0  0
  -13.7220   -7.7323   24.4717 H   0  0  0  0  0  0
  -12.3278  -11.3849   24.4667 H   0  0  0  0  0  0
  -13.5831   -7.4839   26.3508 H   0  0  0  0  0  0
  -11.6537  -11.4066   28.7340 H   0  0  0  0  0  0
  -12.0433  -11.4988   26.2986 H   0  0  0  0  0  0
  -11.9015   -9.7566   30.9050 H   0  0  0  0  0  0
  -12.6970   -7.4461   31.5181 H   0  0  0  0  0  0
  -13.5609   -6.3230   29.0471 H   0  0  0  0  0  0
  1  2  1  0  0  0
  1 13  1  0  0  0
  2  3  1  0  0  0
  2  4  1  0  0  0
  3 14  1  0  0  0
  4  5  1  0  0  0
  4  9  2  0  0  0
  5  6  2  0  0  0
  5 15  1  0  0  0
  6  7  1  0  0  0
  6 12  1  0  0  0
  7  8  2  0  0  0
  7 10  1  0  0  0
  8  9  1  0  0  0
  8 16  1  0  0  0
  9 17  1  0  0  0
 10 11  1  0  0  0
 10 18  1  0  0  0
 11 12  2  0  0  0
 11 19  1  0  0  0
 12 20  1  0  0  0
M  END
> <s_m_entry_id>
321

> <s_m_entry_name>
pdb6qqr.ent.1_B_ligand

> <s_pdb_PDB_TITLE>
CRYSTAL STRUCTURE OF TRMD, A TRNA-(N1G37) METHYLTRANSFERASE, FROM MYCOBACTERIUM ABSCESSUS IN COMPLEX WITH INHIBITOR

> <s_pdb_PDB_ID>
6QQR

> <r_pdb_PDB_CRYST1_a>
73.78

> <r_pdb_PDB_CRYST1_b>
78.711

> <r_pdb_PDB_CRYST1_c>
86.357

> <r_pdb_PDB_CRYST1_alpha>
90

> <r_pdb_PDB_CRYST1_beta>
90

> <r_pdb_PDB_CRYST1_gamma>
90

> <s_pdb_PDB_CRYST1_Space_Group>
P 21 21 21

> <i_pdb_PDB_CRYST1_z>
8

> <s_pdb_PDB_CLASSIFICATION>
TRANSFERASE

> <s_pdb_PDB_DEPOSITION_DATE>
19-FEB-19

> <s_pdb_PDB_format_version>
3.30

> <r_pdb_PDB_R>
0.181

> <r_pdb_PDB_Rfree>
0.203

> <r_pdb_PDB_RESOLUTION>
1.56

> <s_pdb_PDB_EXPDTA>
X-RAY DIFFRACTION

> <r_pdb_PDB_EXPDTA_TEMPERATURE>
100

> <s_pdb_PDB_REMARK_350_Biomolecule_1_Transform_1_Chains>
A, B

> <s_pdb_PDB_REMARK_350_Biomolecule_1_Transform_1_Matrix_1>
1.000000 0.000000 0.000000   0.000000;0.000000 1.000000 0.000000   0.000000;0.000000 0.000000 1.000000   0.000000

> <s_m_Source_Path>
C:\Users\maila\Downloads\other-all-PDB

> <s_m_Source_File>
pdb6qqr.ent.gz

> <i_m_Source_File_Index>
1

> <s_ppw_entry_id_backup>
35

> <b_ppw_prepared>
1

> <s_ppw_prepared_with_version>
2021-1

> <b_ppw_assigned_bond_orders>
1

> <b_ppw_added_hydrogens>
1

> <b_ppw_treated_metals>
1

> <b_ppw_created_disulfur>
1

> <s_m_Chain_Name>
B

> <s_m_subgroup_title>
6QQR - preprocessed_split_by_chain->6QQR - preprocessed_chainB_split_by_structure

> <s_m_subgroupid>
6QQR - preprocessed_split_by_chain->6QQR - preprocessed_chainB_split_by_structure

> <b_m_subgroup_collapsed>
0

$$$$
