6QQS - preprocessed_chainA_ligand
                    3D
 Schrodinger Suite 2021-1.
 25 27  0  0  1  0            999 V2000
  -25.2020   21.7160  -10.9590 C   0  0  0  0  0  0
  -23.3340   22.8730  -11.2210 N   0  0  0  0  0  0
  -24.1620   19.3950  -11.5760 C   0  0  0  0  0  0
  -20.1210   17.6210  -12.3360 C   0  0  0  0  0  0
  -17.9020   16.4610  -12.7300 N   0  0  0  0  0  0
  -18.7550   17.5950  -12.6610 C   0  0  0  0  0  0
  -18.3740   18.8680  -12.9100 N   0  0  0  0  0  0
  -19.4330   19.6780  -12.7570 N   0  0  0  0  0  0
  -20.4930   18.9460  -12.4430 C   0  0  0  0  0  0
  -21.8220   19.5590  -12.1170 C   0  0  0  0  0  0
  -21.8240   20.9330  -11.8760 C   0  0  0  0  0  0
  -23.0360   21.5610  -11.4970 C   0  0  0  0  0  0
  -24.1860   20.7960  -11.3530 C   0  0  0  0  0  0
  -24.6280   22.9850  -10.8950 C   0  0  0  0  0  0
  -22.9790   18.7710  -11.9540 C   0  0  0  0  0  0
  -26.2058   21.3643  -10.7717 H   0  0  0  0  0  0
  -22.6136   23.5782  -11.2826 H   0  0  0  0  0  0
  -25.0633   18.8130  -11.4520 H   0  0  0  0  0  0
  -20.6320   16.7054  -12.0772 H   0  0  0  0  0  0
  -16.9294   16.5750  -12.9773 H   0  0  0  0  0  0
  -18.2682   15.5408  -12.5318 H   0  0  0  0  0  0
  -17.4171   19.0683  -13.1638 H   0  0  0  0  0  0
  -20.9111   21.5007  -11.9793 H   0  0  0  0  0  0
  -25.2307   23.8369  -10.6167 H   0  0  0  0  0  0
  -22.9596   17.7035  -12.1165 H   0  0  0  0  0  0
  1 13  1  0  0  0
  1 14  2  0  0  0
  1 16  1  0  0  0
  2 12  1  0  0  0
  2 14  1  0  0  0
  2 17  1  0  0  0
  3 13  2  0  0  0
  3 15  1  0  0  0
  3 18  1  0  0  0
  4  6  2  0  0  0
  4  9  1  0  0  0
  4 19  1  0  0  0
  5  6  1  0  0  0
  5 20  1  0  0  0
  5 21  1  0  0  0
  6  7  1  0  0  0
  7  8  1  0  0  0
  7 22  1  0  0  0
  8  9  2  0  0  0
  9 10  1  0  0  0
 10 11  1  0  0  0
 10 15  2  0  0  0
 11 12  2  0  0  0
 11 23  1  0  0  0
 12 13  1  0  0  0
 14 24  1  0  0  0
 15 25  1  0  0  0
M  END
> <s_m_entry_id>
326

> <s_m_entry_name>
pdb6qqs.ent.1_A_ligand

> <s_pdb_PDB_TITLE>
CRYSTAL STRUCTURE OF TRMD, A TRNA-(N1G37) METHYLTRANSFERASE, FROM MYCOBACTERIUM ABSCESSUS IN COMPLEX WITH INHIBITOR

> <s_pdb_PDB_ID>
6QQS

> <r_pdb_PDB_CRYST1_a>
74.357

> <r_pdb_PDB_CRYST1_b>
79.028

> <r_pdb_PDB_CRYST1_c>
85.537

> <r_pdb_PDB_CRYST1_alpha>
90

> <r_pdb_PDB_CRYST1_beta>
90

> <r_pdb_PDB_CRYST1_gamma>
90

> <s_pdb_PDB_CRYST1_Space_Group>
P 21 21 21

> <i_pdb_PDB_CRYST1_z>
8

> <s_pdb_PDB_CLASSIFICATION>
TRANSFERASE

> <s_pdb_PDB_DEPOSITION_DATE>
19-FEB-19

> <s_pdb_PDB_format_version>
3.30

> <r_pdb_PDB_R>
0.178

> <r_pdb_PDB_Rfree>
0.212

> <r_pdb_PDB_RESOLUTION>
1.76

> <s_pdb_PDB_EXPDTA>
X-RAY DIFFRACTION

> <r_pdb_PDB_EXPDTA_TEMPERATURE>
100

> <s_pdb_PDB_REMARK_350_Biomolecule_1_Transform_1_Chains>
A, B

> <s_pdb_PDB_REMARK_350_Biomolecule_1_Transform_1_Matrix_1>
1.000000 0.000000 0.000000   0.000000;0.000000 1.000000 0.000000   0.000000;0.000000 0.000000 1.000000   0.000000

> <s_m_Source_Path>
C:\Users\maila\Downloads\other-all-PDB

> <s_m_Source_File>
pdb6qqs.ent.gz

> <i_m_Source_File_Index>
1

> <s_ppw_entry_id_backup>
36

> <b_ppw_prepared>
1

> <s_ppw_prepared_with_version>
2021-1

> <b_ppw_assigned_bond_orders>
1

> <b_ppw_added_hydrogens>
1

> <b_ppw_treated_metals>
1

> <b_ppw_created_disulfur>
1

> <s_m_Chain_Name>
A

> <s_m_subgroup_title>
6QQS - preprocessed_split_by_chain->6QQS - preprocessed_chainA_split_by_structure

> <s_m_subgroupid>
6QQS - preprocessed_split_by_chain->6QQS - preprocessed_chainA_split_by_structure

> <b_m_subgroup_collapsed>
0

$$$$
