6QQT - preprocessed_chainA_ligand
                    3D
 Schrodinger Suite 2021-1.
 42 45  0  0  1  0            999 V2000
  -23.3970   21.0180  -11.2690 C   0  0  0  0  0  0
  -22.1760   23.5710   -9.5640 C   0  0  0  0  0  0
  -21.9330   23.1340   -7.1480 C   0  0  0  0  0  0
  -21.0340   24.2830   -9.5380 C   0  0  0  0  0  0
  -25.1010   22.3060  -10.6320 C   0  0  0  0  0  0
  -25.5710   21.0250  -10.7870 C   0  0  0  0  0  0
  -20.2580   17.3160  -12.1970 C   0  0  0  0  0  0
  -17.9540   16.1970  -12.5710 N   0  0  0  0  0  0
  -18.8390   17.3170  -12.5060 C   0  0  0  0  0  0
  -18.4790   18.5980  -12.7050 N   0  0  0  0  0  0
  -19.5660   19.3830  -12.5430 N   0  0  0  0  0  0
  -20.6560   18.5930  -12.2800 C   0  0  0  0  0  0
  -22.0210   19.1240  -11.9640 C   0  0  0  0  0  0
  -23.1080   18.2720  -11.8870 C   0  0  0  0  0  0
  -24.3590   18.8020  -11.4990 C   0  0  0  0  0  0
  -24.4810   20.1920  -11.2000 C   0  0  0  0  0  0
  -23.7970   22.2860  -10.9250 N   0  0  0  0  0  0
  -22.8960   23.4410  -10.8910 C   0  0  0  0  0  0
  -22.6620   22.9730   -8.3930 C   0  0  0  0  0  0
  -20.7730   23.8570   -7.1330 C   0  0  0  0  0  0
  -20.0500   24.0240   -5.9270 O   0  0  0  0  0  0
  -20.5030   25.1630   -5.1500 C   0  0  0  0  0  0
  -20.2970   24.4390   -8.2930 C   0  0  0  0  0  0
  -22.1200   20.4970  -11.6520 C   0  0  0  0  0  0
  -22.3078   22.6838   -6.2407 H   0  0  0  0  0  0
  -20.6622   24.7405  -10.4429 H   0  0  0  0  0  0
  -25.7723   23.0939  -10.3239 H   0  0  0  0  0  0
  -26.6115   20.8051  -10.5989 H   0  0  0  0  0  0
  -20.7594   16.3881  -11.9646 H   0  0  0  0  0  0
  -16.9799   16.3357  -12.7989 H   0  0  0  0  0  0
  -18.3026   15.2667  -12.3891 H   0  0  0  0  0  0
  -17.5216   18.8237  -12.9342 H   0  0  0  0  0  0
  -22.9905   17.2243  -12.1212 H   0  0  0  0  0  0
  -25.2212   18.1553  -11.4291 H   0  0  0  0  0  0
  -22.1637   23.3531  -11.6936 H   0  0  0  0  0  0
  -23.4649   24.3503  -11.0853 H   0  0  0  0  0  0
  -23.5745   22.3959   -8.4200 H   0  0  0  0  0  0
  -19.9116   25.2394   -4.2376 H   0  0  0  0  0  0
  -20.3844   26.0740   -5.7366 H   0  0  0  0  0  0
  -21.5538   25.0323   -4.8913 H   0  0  0  0  0  0
  -19.3797   25.0088   -8.2763 H   0  0  0  0  0  0
  -21.2615   21.1507  -11.6968 H   0  0  0  0  0  0
  1 16  1  0  0  0
  1 17  1  0  0  0
  1 24  2  0  0  0
  2  4  2  0  0  0
  2 18  1  0  0  0
  2 19  1  0  0  0
  3 19  2  0  0  0
  3 20  1  0  0  0
  3 25  1  0  0  0
  4 23  1  0  0  0
  4 26  1  0  0  0
  5  6  2  0  0  0
  5 17  1  0  0  0
  5 27  1  0  0  0
  6 16  1  0  0  0
  6 28  1  0  0  0
  7  9  2  0  0  0
  7 12  1  0  0  0
  7 29  1  0  0  0
  8  9  1  0  0  0
  8 30  1  0  0  0
  8 31  1  0  0  0
  9 10  1  0  0  0
 10 11  1  0  0  0
 10 32  1  0  0  0
 11 12  2  0  0  0
 12 13  1  0  0  0
 13 14  2  0  0  0
 13 24  1  0  0  0
 14 15  1  0  0  0
 14 33  1  0  0  0
 15 16  2  0  0  0
 15 34  1  0  0  0
 17 18  1  0  0  0
 18 35  1  0  0  0
 18 36  1  0  0  0
 19 37  1  0  0  0
 20 21  1  0  0  0
 20 23  2  0  0  0
 21 22  1  0  0  0
 22 38  1  0  0  0
 22 39  1  0  0  0
 22 40  1  0  0  0
 23 41  1  0  0  0
 24 42  1  0  0  0
M  END
> <s_m_entry_id>
331

> <s_m_entry_name>
pdb6qqt.ent.1_A_ligand

> <s_pdb_PDB_TITLE>
CRYSTAL STRUCTURE OF TRMD, A TRNA-(N1G37) METHYLTRANSFERASE, FROM MYCOBACTERIUM ABSCESSUS IN COMPLEX WITH INHIBITOR

> <s_pdb_PDB_ID>
6QQT

> <r_pdb_PDB_CRYST1_a>
74.591

> <r_pdb_PDB_CRYST1_b>
77.862

> <r_pdb_PDB_CRYST1_c>
86.636

> <r_pdb_PDB_CRYST1_alpha>
90

> <r_pdb_PDB_CRYST1_beta>
90

> <r_pdb_PDB_CRYST1_gamma>
90

> <s_pdb_PDB_CRYST1_Space_Group>
P 21 21 21

> <i_pdb_PDB_CRYST1_z>
8

> <s_pdb_PDB_CLASSIFICATION>
TRANSFERASE

> <s_pdb_PDB_DEPOSITION_DATE>
19-FEB-19

> <s_pdb_PDB_format_version>
3.30

> <r_pdb_PDB_R>
0.171

> <r_pdb_PDB_Rfree>
0.205

> <r_pdb_PDB_RESOLUTION>
1.67

> <s_pdb_PDB_EXPDTA>
X-RAY DIFFRACTION

> <r_pdb_PDB_EXPDTA_TEMPERATURE>
100

> <s_pdb_PDB_REMARK_350_Biomolecule_1_Transform_1_Chains>
A, B

> <s_pdb_PDB_REMARK_350_Biomolecule_1_Transform_1_Matrix_1>
1.000000 0.000000 0.000000   0.000000;0.000000 1.000000 0.000000   0.000000;0.000000 0.000000 1.000000   0.000000

> <s_m_Source_Path>
C:\Users\maila\Downloads\other-all-PDB

> <s_m_Source_File>
pdb6qqt.ent.gz

> <i_m_Source_File_Index>
1

> <s_ppw_entry_id_backup>
37

> <b_ppw_prepared>
1

> <s_ppw_prepared_with_version>
2021-1

> <b_ppw_assigned_bond_orders>
1

> <b_ppw_added_hydrogens>
1

> <b_ppw_treated_metals>
1

> <b_ppw_created_disulfur>
1

> <s_m_Chain_Name>
A

> <s_m_subgroup_title>
6QQT - preprocessed_split_by_chain->6QQT - preprocessed_chainA_split_by_structure

> <s_m_subgroupid>
6QQT - preprocessed_split_by_chain->6QQT - preprocessed_chainA_split_by_structure

> <b_m_subgroup_collapsed>
0

$$$$
