6QQU - preprocessed_chainA_ligand
                    3D
 Schrodinger Suite 2021-1.
 26 28  0  0  1  0            999 V2000
  -23.1680   21.3210  -11.4720 C   0  0  0  0  0  0
  -25.3330   21.2900  -10.8740 C   0  0  0  0  0  0
  -19.8650   17.6960  -12.6530 C   0  0  0  0  0  0
  -17.5430   16.7910  -13.0680 N   0  0  0  0  0  0
  -18.4950   17.8540  -12.8620 C   0  0  0  0  0  0
  -18.2200   19.1800  -12.8500 N   0  0  0  0  0  0
  -19.3810   19.8450  -12.6210 N   0  0  0  0  0  0
  -20.3890   18.9810  -12.5420 C   0  0  0  0  0  0
  -21.7920   19.4670  -12.1890 C   0  0  0  0  0  0
  -22.8660   18.5660  -11.9880 C   0  0  0  0  0  0
  -24.0990   19.0710  -11.5720 C   0  0  0  0  0  0
  -24.2390   20.4650  -11.3110 C   0  0  0  0  0  0
  -23.5740   22.5960  -11.1650 N   0  0  0  0  0  0
  -24.8650   22.5940  -10.8060 C   0  0  0  0  0  0
  -21.9010   20.8250  -11.8970 C   0  0  0  0  0  0
  -20.5290   16.3430  -12.6320 C   0  0  0  0  0  0
  -20.9760   15.2870  -12.6280 N   0  0  0  0  0  0
  -26.2960   20.8460  -10.6694 H   0  0  0  0  0  0
  -16.5671   17.0079  -13.2115 H   0  0  0  0  0  0
  -17.8520   15.8294  -13.0688 H   0  0  0  0  0  0
  -17.2738   19.5009  -12.9981 H   0  0  0  0  0  0
  -22.7228   17.5089  -12.1565 H   0  0  0  0  0  0
  -24.9412   18.4062  -11.4493 H   0  0  0  0  0  0
  -22.9207   23.3635  -11.2301 H   0  0  0  0  0  0
  -25.5276   23.3903  -10.5005 H   0  0  0  0  0  0
  -21.0599   21.4968  -11.9847 H   0  0  0  0  0  0
  1 12  1  0  0  0
  1 13  1  0  0  0
  1 15  2  0  0  0
  2 12  1  0  0  0
  2 14  2  0  0  0
  2 18  1  0  0  0
  3  5  2  0  0  0
  3  8  1  0  0  0
  3 16  1  0  0  0
  4  5  1  0  0  0
  4 19  1  0  0  0
  4 20  1  0  0  0
  5  6  1  0  0  0
  6  7  1  0  0  0
  6 21  1  0  0  0
  7  8  2  0  0  0
  8  9  1  0  0  0
  9 10  2  0  0  0
  9 15  1  0  0  0
 10 11  1  0  0  0
 10 22  1  0  0  0
 11 12  2  0  0  0
 11 23  1  0  0  0
 13 14  1  0  0  0
 13 24  1  0  0  0
 14 25  1  0  0  0
 15 26  1  0  0  0
 16 17  3  0  0  0
M  END
> <s_m_entry_id>
336

> <s_m_entry_name>
pdb6qqu.ent.1_A_ligand

> <s_pdb_PDB_TITLE>
CRYSTAL STRUCTURE OF TRMD, A TRNA-(N1G37) METHYLTRANSFERASE, FROM MYCOBACTERIUM ABSCESSUS IN COMPLEX WITH INHIBITOR

> <s_pdb_PDB_ID>
6QQU

> <r_pdb_PDB_CRYST1_a>
74.41

> <r_pdb_PDB_CRYST1_b>
78.66

> <r_pdb_PDB_CRYST1_c>
85.91

> <r_pdb_PDB_CRYST1_alpha>
90

> <r_pdb_PDB_CRYST1_beta>
90

> <r_pdb_PDB_CRYST1_gamma>
90

> <s_pdb_PDB_CRYST1_Space_Group>
P 21 21 21

> <i_pdb_PDB_CRYST1_z>
8

> <s_pdb_PDB_CLASSIFICATION>
TRANSFERASE

> <s_pdb_PDB_DEPOSITION_DATE>
19-FEB-19

> <s_pdb_PDB_format_version>
3.30

> <r_pdb_PDB_R>
0.18

> <r_pdb_PDB_Rfree>
0.199

> <r_pdb_PDB_RESOLUTION>
1.59

> <s_pdb_PDB_EXPDTA>
X-RAY DIFFRACTION

> <r_pdb_PDB_EXPDTA_TEMPERATURE>
100

> <s_pdb_PDB_REMARK_350_Biomolecule_1_Transform_1_Chains>
A, B

> <s_pdb_PDB_REMARK_350_Biomolecule_1_Transform_1_Matrix_1>
1.000000 0.000000 0.000000   0.000000;0.000000 1.000000 0.000000   0.000000;0.000000 0.000000 1.000000   0.000000

> <s_m_Source_Path>
C:\Users\maila\Downloads\other-all-PDB

> <s_m_Source_File>
pdb6qqu.ent.gz

> <i_m_Source_File_Index>
1

> <s_ppw_entry_id_backup>
38

> <b_ppw_prepared>
1

> <s_ppw_prepared_with_version>
2021-1

> <b_ppw_assigned_bond_orders>
1

> <b_ppw_added_hydrogens>
1

> <b_ppw_treated_metals>
1

> <b_ppw_created_disulfur>
1

> <s_m_Chain_Name>
A

> <s_m_subgroup_title>
6QQU - preprocessed_split_by_chain->6QQU - preprocessed_chainA_split_by_structure

> <s_m_subgroupid>
6QQU - preprocessed_split_by_chain->6QQU - preprocessed_chainA_split_by_structure

> <b_m_subgroup_collapsed>
0

$$$$
