6QQV - preprocessed_chainA_ligand
                    3D
 Schrodinger Suite 2021-1.
 39 42  0  0  1  0            999 V2000
  -22.0980  -19.2040   12.0460 C   0  0  0  0  0  0
  -24.4490  -18.8760   11.6380 C   0  0  0  0  0  0
  -25.6520  -21.0970   10.9190 C   0  0  0  0  0  0
  -20.3180  -17.3510   12.3140 C   0  0  0  0  0  0
  -18.9540  -17.3620   12.6110 C   0  0  0  0  0  0
  -23.9430  -20.7320    8.2270 N   0  0  0  0  0  0
  -23.2950  -21.6680    8.3260 C   0  0  0  0  0  0
  -22.4230  -22.9020    8.4420 C   0  0  0  0  0  0
  -22.2930  -23.6940    9.5930 C   0  0  0  0  0  0
  -21.4600  -24.8110    9.5560 C   0  0  0  0  0  0
  -20.7660  -25.1450    8.4110 C   0  0  0  0  0  0
  -20.8960  -24.3590    7.2820 C   0  0  0  0  0  0
  -21.7190  -23.2500    7.2980 C   0  0  0  0  0  0
  -22.9850  -23.4770   10.9290 C   0  0  0  0  0  0
  -23.8550  -22.3490   11.0030 N   0  0  0  0  0  0
  -23.4580  -21.0820   11.3580 C   0  0  0  0  0  0
  -22.1910  -20.5520   11.7160 C   0  0  0  0  0  0
  -23.2070  -18.3520   11.9990 C   0  0  0  0  0  0
  -24.5600  -20.2530   11.3220 C   0  0  0  0  0  0
  -25.1630  -22.3810   10.7420 C   0  0  0  0  0  0
  -20.7350  -18.6650   12.3610 C   0  0  0  0  0  0
  -18.5970  -18.6530   12.7870 N   0  0  0  0  0  0
  -19.6880  -19.4450   12.6230 N   0  0  0  0  0  0
  -18.0690  -16.2460   12.7120 N   0  0  0  0  0  0
  -25.3162  -18.2333   11.6011 H   0  0  0  0  0  0
  -26.6427  -20.6818   10.8074 H   0  0  0  0  0  0
  -20.8182  -16.4163   12.1077 H   0  0  0  0  0  0
  -21.3495  -25.4315   10.4330 H   0  0  0  0  0  0
  -20.1268  -26.0155    8.4016 H   0  0  0  0  0  0
  -20.3530  -24.6111    6.3831 H   0  0  0  0  0  0
  -21.8107  -22.6506    6.4043 H   0  0  0  0  0  0
  -22.2339  -23.4042   11.7155 H   0  0  0  0  0  0
  -23.5388  -24.3766   11.1976 H   0  0  0  0  0  0
  -21.3088  -21.1747   11.7352 H   0  0  0  0  0  0
  -23.0944  -17.3053   12.2402 H   0  0  0  0  0  0
  -25.8299  -23.1765   10.4438 H   0  0  0  0  0  0
  -17.6388  -18.8868   13.0044 H   0  0  0  0  0  0
  -17.0950  -16.3925   12.9354 H   0  0  0  0  0  0
  -18.4170  -15.3101   12.5600 H   0  0  0  0  0  0
  1 17  2  0  0  0
  1 18  1  0  0  0
  1 21  1  0  0  0
  2 18  2  0  0  0
  2 19  1  0  0  0
  2 25  1  0  0  0
  3 19  1  0  0  0
  3 20  2  0  0  0
  3 26  1  0  0  0
  4  5  2  0  0  0
  4 21  1  0  0  0
  4 27  1  0  0  0
  5 22  1  0  0  0
  5 24  1  0  0  0
  6  7  3  0  0  0
  7  8  1  0  0  0
  8  9  2  0  0  0
  8 13  1  0  0  0
  9 10  1  0  0  0
  9 14  1  0  0  0
 10 11  2  0  0  0
 10 28  1  0  0  0
 11 12  1  0  0  0
 11 29  1  0  0  0
 12 13  2  0  0  0
 12 30  1  0  0  0
 13 31  1  0  0  0
 14 15  1  0  0  0
 14 32  1  0  0  0
 14 33  1  0  0  0
 15 16  1  0  0  0
 15 20  1  0  0  0
 16 17  1  0  0  0
 16 19  2  0  0  0
 17 34  1  0  0  0
 18 35  1  0  0  0
 20 36  1  0  0  0
 21 23  2  0  0  0
 22 23  1  0  0  0
 22 37  1  0  0  0
 24 38  1  0  0  0
 24 39  1  0  0  0
M  END
> <s_m_entry_id>
341

> <s_m_entry_name>
pdb6qqv.ent.1_A_ligand

> <s_pdb_PDB_TITLE>
CRYSTAL STRUCTURE OF TRMD, A TRNA-(N1G37) METHYLTRANSFERASE, FROM MYCOBACTERIUM ABSCESSUS IN COMPLEX WITH INHIBITOR

> <s_pdb_PDB_ID>
6QQV

> <r_pdb_PDB_CRYST1_a>
74.556

> <r_pdb_PDB_CRYST1_b>
77.749

> <r_pdb_PDB_CRYST1_c>
86.182

> <r_pdb_PDB_CRYST1_alpha>
90

> <r_pdb_PDB_CRYST1_beta>
90

> <r_pdb_PDB_CRYST1_gamma>
90

> <s_pdb_PDB_CRYST1_Space_Group>
P 21 21 21

> <i_pdb_PDB_CRYST1_z>
8

> <s_pdb_PDB_CLASSIFICATION>
TRANSFERASE

> <s_pdb_PDB_DEPOSITION_DATE>
19-FEB-19

> <s_pdb_PDB_format_version>
3.30

> <r_pdb_PDB_R>
0.176

> <r_pdb_PDB_Rfree>
0.202

> <r_pdb_PDB_RESOLUTION>
1.71

> <s_pdb_PDB_EXPDTA>
X-RAY DIFFRACTION

> <r_pdb_PDB_EXPDTA_TEMPERATURE>
100

> <s_pdb_PDB_REMARK_350_Biomolecule_1_Transform_1_Chains>
A, B

> <s_pdb_PDB_REMARK_350_Biomolecule_1_Transform_1_Matrix_1>
1.000000 0.000000 0.000000   0.000000;0.000000 1.000000 0.000000   0.000000;0.000000 0.000000 1.000000   0.000000

> <s_m_Source_Path>
C:\Users\maila\Downloads\other-all-PDB

> <s_m_Source_File>
pdb6qqv.ent.gz

> <i_m_Source_File_Index>
1

> <s_ppw_entry_id_backup>
39

> <b_ppw_prepared>
1

> <s_ppw_prepared_with_version>
2021-1

> <b_ppw_assigned_bond_orders>
1

> <b_ppw_added_hydrogens>
1

> <b_ppw_treated_metals>
1

> <b_ppw_created_disulfur>
1

> <s_m_Chain_Name>
A

> <s_m_subgroup_title>
6QQV - preprocessed_split_by_chain->6QQV - preprocessed_chainA_split_by_structure

> <s_m_subgroupid>
6QQV - preprocessed_split_by_chain->6QQV - preprocessed_chainA_split_by_structure

> <b_m_subgroup_collapsed>
0

$$$$
