6QQZ - preprocessed_chainA_ligand
                    3D
 Schrodinger Suite 2021-1.
 38 41  0  0  1  0            999 V2000
  -23.0150   18.2460  -11.8530 C   0  0  0  0  0  0
  -23.4550   21.0130  -11.2370 C   0  0  0  0  0  0
  -22.2390   23.6330   -9.5650 C   0  0  0  0  0  0
  -20.7440   23.8380   -7.2680 C   0  0  0  0  0  0
  -20.2640   24.4550   -8.4380 C   0  0  0  0  0  0
  -21.0410   24.3560   -9.6280 C   0  0  0  0  0  0
  -25.6360   20.8320  -10.6780 C   0  0  0  0  0  0
  -17.7190   16.6470  -12.9230 N   0  0  0  0  0  0
  -18.6290   17.7000  -12.6950 C   0  0  0  0  0  0
  -18.3830   18.9600  -12.5880 N   0  0  0  0  0  0
  -19.5660   19.6130  -12.3360 N   0  0  0  0  0  0
  -20.5480   18.7580  -12.3260 C   0  0  0  0  0  0
  -20.0280   17.5210  -12.4890 C   0  0  0  0  0  0
  -20.6730   16.1580  -12.5490 C   0  0  0  0  0  0
  -21.1160   15.1070  -12.6000 N   0  0  0  0  0  0
  -21.9620   19.1960  -11.9750 C   0  0  0  0  0  0
  -24.2980   18.6900  -11.4360 C   0  0  0  0  0  0
  -24.5140   20.0770  -11.1230 C   0  0  0  0  0  0
  -22.1510   20.5730  -11.6410 C   0  0  0  0  0  0
  -23.9310   22.2580  -10.8710 N   0  0  0  0  0  0
  -23.1250   23.5130  -10.8580 C   0  0  0  0  0  0
  -22.6500   23.0450   -8.3230 C   0  0  0  0  0  0
  -21.9000   23.1730   -7.2470 N   0  0  0  0  0  0
  -25.2450   22.1910  -10.5390 C   0  0  0  0  0  0
  -22.8319   17.2053  -12.0763 H   0  0  0  0  0  0
  -20.1722   23.8955   -6.3536 H   0  0  0  0  0  0
  -19.3254   24.9890   -8.4208 H   0  0  0  0  0  0
  -20.7353   24.8148  -10.5567 H   0  0  0  0  0  0
  -26.5831   20.3419  -10.5068 H   0  0  0  0  0  0
  -18.0527   15.6958  -12.9854 H   0  0  0  0  0  0
  -16.7336   16.8441  -13.0239 H   0  0  0  0  0  0
  -17.4377   19.3005  -12.6909 H   0  0  0  0  0  0
  -25.1127   17.9858  -11.3537 H   0  0  0  0  0  0
  -21.3340   21.2777  -11.6885 H   0  0  0  0  0  0
  -22.4851   23.5420  -11.7399 H   0  0  0  0  0  0
  -23.7919   24.3728  -10.9216 H   0  0  0  0  0  0
  -23.5775   22.4946   -8.2669 H   0  0  0  0  0  0
  -25.9648   22.9300  -10.2194 H   0  0  0  0  0  0
  1 16  2  0  0  0
  1 17  1  0  0  0
  1 25  1  0  0  0
  2 18  1  0  0  0
  2 19  2  0  0  0
  2 20  1  0  0  0
  3  6  2  0  0  0
  3 21  1  0  0  0
  3 22  1  0  0  0
  4  5  2  0  0  0
  4 23  1  0  0  0
  4 26  1  0  0  0
  5  6  1  0  0  0
  5 27  1  0  0  0
  6 28  1  0  0  0
  7 18  1  0  0  0
  7 24  2  0  0  0
  7 29  1  0  0  0
  8  9  1  0  0  0
  8 30  1  0  0  0
  8 31  1  0  0  0
  9 10  1  0  0  0
  9 13  2  0  0  0
 10 11  1  0  0  0
 10 32  1  0  0  0
 11 12  2  0  0  0
 12 13  1  0  0  0
 12 16  1  0  0  0
 13 14  1  0  0  0
 14 15  3  0  0  0
 16 19  1  0  0  0
 17 18  2  0  0  0
 17 33  1  0  0  0
 19 34  1  0  0  0
 20 21  1  0  0  0
 20 24  1  0  0  0
 21 35  1  0  0  0
 21 36  1  0  0  0
 22 23  2  0  0  0
 22 37  1  0  0  0
 24 38  1  0  0  0
M  END
> <s_m_entry_id>
361

> <s_m_entry_name>
pdb6qqz.ent.1_A_ligand

> <s_pdb_PDB_TITLE>
CRYSTAL STRUCTURE OF TRMD, A TRNA-(N1G37) METHYLTRANSFERASE, FROM MYCOBACTERIUM ABSCESSUS IN COMPLEX WITH INHIBITOR

> <s_pdb_PDB_ID>
6QQZ

> <r_pdb_PDB_CRYST1_a>
74.779

> <r_pdb_PDB_CRYST1_b>
77.775

> <r_pdb_PDB_CRYST1_c>
86.438

> <r_pdb_PDB_CRYST1_alpha>
90

> <r_pdb_PDB_CRYST1_beta>
90

> <r_pdb_PDB_CRYST1_gamma>
90

> <s_pdb_PDB_CRYST1_Space_Group>
P 21 21 21

> <i_pdb_PDB_CRYST1_z>
8

> <s_pdb_PDB_CLASSIFICATION>
TRANSFERASE

> <s_pdb_PDB_DEPOSITION_DATE>
19-FEB-19

> <s_pdb_PDB_format_version>
3.30

> <r_pdb_PDB_R>
0.173

> <r_pdb_PDB_Rfree>
0.196

> <r_pdb_PDB_RESOLUTION>
1.7

> <s_pdb_PDB_EXPDTA>
X-RAY DIFFRACTION

> <r_pdb_PDB_EXPDTA_TEMPERATURE>
100

> <s_pdb_PDB_REMARK_350_Biomolecule_1_Transform_1_Chains>
A, B

> <s_pdb_PDB_REMARK_350_Biomolecule_1_Transform_1_Matrix_1>
1.000000 0.000000 0.000000   0.000000;0.000000 1.000000 0.000000   0.000000;0.000000 0.000000 1.000000   0.000000

> <s_m_Source_Path>
C:\Users\maila\Downloads\other-all-PDB

> <s_m_Source_File>
pdb6qqz.ent.gz

> <i_m_Source_File_Index>
1

> <s_ppw_entry_id_backup>
43

> <b_ppw_prepared>
1

> <s_ppw_prepared_with_version>
2021-1

> <b_ppw_assigned_bond_orders>
1

> <b_ppw_added_hydrogens>
1

> <b_ppw_treated_metals>
1

> <b_ppw_created_disulfur>
1

> <s_m_Chain_Name>
A

> <s_m_subgroup_title>
6QQZ - preprocessed_split_by_chain->6QQZ - preprocessed_chainA_split_by_structure

> <s_m_subgroupid>
6QQZ - preprocessed_split_by_chain->6QQZ - preprocessed_chainA_split_by_structure

> <b_m_subgroup_collapsed>
0

$$$$
