6QR1 - preprocessed_chainA_ligand
                    3D
 Schrodinger Suite 2021-1.
 38 41  0  0  1  0            999 V2000
  -22.0750   20.4910  -11.4950 C   0  0  0  0  0  0
  -20.4810   18.7490  -12.2910 C   0  0  0  0  0  0
  -19.9130   17.4570  -12.4650 C   0  0  0  0  0  0
  -20.5610   16.0950  -12.5090 C   0  0  0  0  0  0
  -24.0600   18.5560  -10.9970 C   0  0  0  0  0  0
  -25.3900   20.6480  -10.1350 C   0  0  0  0  0  0
  -25.0490   22.0290  -10.0720 C   0  0  0  0  0  0
  -23.0360   23.3650  -10.6650 C   0  0  0  0  0  0
  -22.1540   23.4950   -9.4240 C   0  0  0  0  0  0
  -22.5670   22.9900   -8.1660 C   0  0  0  0  0  0
  -21.7070   23.1400   -7.0570 C   0  0  0  0  0  0
  -20.4650   23.7800   -7.2470 C   0  0  0  0  0  0
  -20.8910   24.1210   -9.5000 C   0  0  0  0  0  0
  -23.3190   20.8900  -10.9350 C   0  0  0  0  0  0
  -21.8690   19.1420  -11.8370 C   0  0  0  0  0  0
  -18.5810   17.6550  -12.6970 C   0  0  0  0  0  0
  -22.8330   18.1640  -11.5450 C   0  0  0  0  0  0
  -24.2900   19.9300  -10.6950 C   0  0  0  0  0  0
  -23.8040   22.1430  -10.5510 N   0  0  0  0  0  0
  -20.1100   24.2410   -8.4400 N   0  0  0  0  0  0
  -19.4630   19.6420  -12.2990 N   0  0  0  0  0  0
  -18.3280   18.9700  -12.5960 N   0  0  0  0  0  0
  -17.6110   16.6110  -12.9900 N   0  0  0  0  0  0
  -20.9960   15.0550  -12.5520 N   0  0  0  0  0  0
  -26.8440   19.8720   -9.6340 Cl  0  0  0  0  0  0
  -21.2958   21.2215  -11.6553 H   0  0  0  0  0  0
  -24.8259   17.8191  -10.8054 H   0  0  0  0  0  0
  -25.7606   22.7439   -9.6860 H   0  0  0  0  0  0
  -22.4070   23.3168  -11.5539 H   0  0  0  0  0  0
  -23.7145   24.2164  -10.7189 H   0  0  0  0  0  0
  -23.5249   22.5007   -8.0686 H   0  0  0  0  0  0
  -22.0055   22.7680   -6.0880 H   0  0  0  0  0  0
  -19.7870   23.9009   -6.4151 H   0  0  0  0  0  0
  -20.5403   24.5169  -10.4416 H   0  0  0  0  0  0
  -22.6369   17.1197  -11.7383 H   0  0  0  0  0  0
  -19.6440   20.6159  -12.1019 H   0  0  0  0  0  0
  -16.6429   16.8512  -13.1486 H   0  0  0  0  0  0
  -17.9057   15.6460  -13.0348 H   0  0  0  0  0  0
  1 14  2  0  0  0
  1 15  1  0  0  0
  1 26  1  0  0  0
  2  3  2  0  0  0
  2 15  1  0  0  0
  2 21  1  0  0  0
  3  4  1  0  0  0
  3 16  1  0  0  0
  4 24  3  0  0  0
  5 17  1  0  0  0
  5 18  2  0  0  0
  5 27  1  0  0  0
  6  7  2  0  0  0
  6 18  1  0  0  0
  6 25  1  0  0  0
  7 19  1  0  0  0
  7 28  1  0  0  0
  8  9  1  0  0  0
  8 19  1  0  0  0
  8 29  1  0  0  0
  8 30  1  0  0  0
  9 10  1  0  0  0
  9 13  2  0  0  0
 10 11  2  0  0  0
 10 31  1  0  0  0
 11 12  1  0  0  0
 11 32  1  0  0  0
 12 20  2  0  0  0
 12 33  1  0  0  0
 13 20  1  0  0  0
 13 34  1  0  0  0
 14 18  1  0  0  0
 14 19  1  0  0  0
 15 17  2  0  0  0
 16 22  2  0  0  0
 16 23  1  0  0  0
 17 35  1  0  0  0
 21 22  1  0  0  0
 21 36  1  0  0  0
 23 37  1  0  0  0
 23 38  1  0  0  0
M  END
> <s_m_entry_id>
371

> <s_m_entry_name>
pdb6qr1.ent.1_A_ligand

> <s_pdb_PDB_TITLE>
CRYSTAL STRUCTURE OF TRMD, A TRNA-(N1G37) METHYLTRANSFERASE, FROM MYCOBACTERIUM ABSCESSUS IN COMPLEX WITH INHIBITOR

> <s_pdb_PDB_ID>
6QR1

> <r_pdb_PDB_CRYST1_a>
74.432

> <r_pdb_PDB_CRYST1_b>
77.484

> <r_pdb_PDB_CRYST1_c>
86.716

> <r_pdb_PDB_CRYST1_alpha>
90

> <r_pdb_PDB_CRYST1_beta>
90

> <r_pdb_PDB_CRYST1_gamma>
90

> <s_pdb_PDB_CRYST1_Space_Group>
P 21 21 21

> <i_pdb_PDB_CRYST1_z>
8

> <s_pdb_PDB_CLASSIFICATION>
TRANSFERASE

> <s_pdb_PDB_DEPOSITION_DATE>
19-FEB-19

> <s_pdb_PDB_format_version>
3.30

> <r_pdb_PDB_R>
0.18

> <r_pdb_PDB_Rfree>
0.205

> <r_pdb_PDB_RESOLUTION>
1.67

> <s_pdb_PDB_EXPDTA>
X-RAY DIFFRACTION

> <r_pdb_PDB_EXPDTA_TEMPERATURE>
100

> <s_pdb_PDB_REMARK_350_Biomolecule_1_Transform_1_Chains>
A, B

> <s_pdb_PDB_REMARK_350_Biomolecule_1_Transform_1_Matrix_1>
1.000000 0.000000 0.000000   0.000000;0.000000 1.000000 0.000000   0.000000;0.000000 0.000000 1.000000   0.000000

> <s_m_Source_Path>
C:\Users\maila\Downloads\other-all-PDB

> <s_m_Source_File>
pdb6qr1.ent.gz

> <i_m_Source_File_Index>
1

> <s_ppw_entry_id_backup>
45

> <b_ppw_prepared>
1

> <s_ppw_prepared_with_version>
2021-1

> <b_ppw_assigned_bond_orders>
1

> <b_ppw_added_hydrogens>
1

> <b_ppw_treated_metals>
1

> <b_ppw_created_disulfur>
1

> <s_m_Chain_Name>
A

> <s_m_subgroup_title>
6QR1 - preprocessed_split_by_chain->6QR1 - preprocessed_chainA_split_by_structure

> <s_m_subgroupid>
6QR1 - preprocessed_split_by_chain->6QR1 - preprocessed_chainA_split_by_structure

> <b_m_subgroup_collapsed>
0

$$$$
