6QR2 - preprocessed_chainA_ligand
                    3D
 Schrodinger Suite 2021-1.
 39 42  0  0  1  0            999 V2000
  -25.3390   22.0570  -10.4380 C   0  0  0  0  0  0
  -23.5780   20.8630  -11.1420 C   0  0  0  0  0  0
  -22.1520   19.0510  -11.9050 C   0  0  0  0  0  0
  -24.4750   18.5620  -11.4040 C   0  0  0  0  0  0
  -20.8980   15.9550  -12.5330 C   0  0  0  0  0  0
  -18.8820   17.4750  -12.6110 C   0  0  0  0  0  0
  -21.6940   25.6000  -10.1060 O   0  0  0  0  0  0
  -21.8270   24.6210   -9.0820 C   0  0  0  0  0  0
  -21.2500   24.8160   -7.9350 N   0  0  0  0  0  0
  -21.3520   23.9200   -6.9490 C   0  0  0  0  0  0
  -22.0820   22.7290   -7.1140 C   0  0  0  0  0  0
  -22.7160   22.4780   -8.3280 C   0  0  0  0  0  0
  -22.5800   23.4650   -9.3530 C   0  0  0  0  0  0
  -23.2150   23.3050  -10.6960 C   0  0  0  0  0  0
  -24.0330   22.1030  -10.7540 N   0  0  0  0  0  0
  -25.7760   20.7180  -10.6210 C   0  0  0  0  0  0
  -24.6610   19.9500  -11.0670 C   0  0  0  0  0  0
  -22.2990   20.4110  -11.5460 C   0  0  0  0  0  0
  -23.2290   18.1130  -11.8170 C   0  0  0  0  0  0
  -20.7660   18.5890  -12.2440 C   0  0  0  0  0  0
  -20.2490   17.3130  -12.4380 C   0  0  0  0  0  0
  -21.3450   14.9050  -12.6180 N   0  0  0  0  0  0
  -18.5940   18.8060  -12.4910 N   0  0  0  0  0  0
  -19.7290   19.4710  -12.2450 N   0  0  0  0  0  0
  -17.9130   16.4440  -12.8660 N   0  0  0  0  0  0
  -25.8484   22.9530  -10.1154 H   0  0  0  0  0  0
  -25.3044   17.8737  -11.3349 H   0  0  0  0  0  0
  -22.1731   25.3138  -10.8871 H   0  0  0  0  0  0
  -20.8682   24.1029   -6.0009 H   0  0  0  0  0  0
  -22.1471   22.0188   -6.3030 H   0  0  0  0  0  0
  -23.2810   21.5677   -8.4641 H   0  0  0  0  0  0
  -22.4395   23.2533  -11.4602 H   0  0  0  0  0  0
  -23.8342   24.1760  -10.9106 H   0  0  0  0  0  0
  -26.8040   20.4535  -10.4220 H   0  0  0  0  0  0
  -21.4671   21.0991  -11.5741 H   0  0  0  0  0  0
  -23.0640   17.0761  -12.0700 H   0  0  0  0  0  0
  -17.6417   19.1276  -12.5904 H   0  0  0  0  0  0
  -16.9378   16.6833  -12.9751 H   0  0  0  0  0  0
  -18.2074   15.4804  -12.9360 H   0  0  0  0  0  0
  1 15  1  0  0  0
  1 16  2  0  0  0
  1 26  1  0  0  0
  2 15  1  0  0  0
  2 17  1  0  0  0
  2 18  2  0  0  0
  3 18  1  0  0  0
  3 19  2  0  0  0
  3 20  1  0  0  0
  4 17  2  0  0  0
  4 19  1  0  0  0
  4 27  1  0  0  0
  5 21  1  0  0  0
  5 22  3  0  0  0
  6 21  2  0  0  0
  6 23  1  0  0  0
  6 25  1  0  0  0
  7  8  1  0  0  0
  7 28  1  0  0  0
  8  9  2  0  0  0
  8 13  1  0  0  0
  9 10  1  0  0  0
 10 11  2  0  0  0
 10 29  1  0  0  0
 11 12  1  0  0  0
 11 30  1  0  0  0
 12 13  2  0  0  0
 12 31  1  0  0  0
 13 14  1  0  0  0
 14 15  1  0  0  0
 14 32  1  0  0  0
 14 33  1  0  0  0
 16 17  1  0  0  0
 16 34  1  0  0  0
 18 35  1  0  0  0
 19 36  1  0  0  0
 20 21  1  0  0  0
 20 24  2  0  0  0
 23 24  1  0  0  0
 23 37  1  0  0  0
 25 38  1  0  0  0
 25 39  1  0  0  0
M  END
> <s_m_entry_id>
376

> <s_m_entry_name>
pdb6qr2.ent.1_A_ligand

> <s_pdb_PDB_TITLE>
CRYSTAL STRUCTURE OF TRMD, A TRNA-(N1G37) METHYLTRANSFERASE, FROM MYCOBACTERIUM ABSCESSUS IN COMPLEX WITH INHIBITOR

> <s_pdb_PDB_ID>
6QR2

> <r_pdb_PDB_CRYST1_a>
74.881

> <r_pdb_PDB_CRYST1_b>
76.728

> <r_pdb_PDB_CRYST1_c>
86.588

> <r_pdb_PDB_CRYST1_alpha>
90

> <r_pdb_PDB_CRYST1_beta>
90

> <r_pdb_PDB_CRYST1_gamma>
90

> <s_pdb_PDB_CRYST1_Space_Group>
P 21 21 21

> <i_pdb_PDB_CRYST1_z>
8

> <s_pdb_PDB_CLASSIFICATION>
TRANSFERASE

> <s_pdb_PDB_DEPOSITION_DATE>
19-FEB-19

> <s_pdb_PDB_format_version>
3.30

> <r_pdb_PDB_R>
0.169

> <r_pdb_PDB_Rfree>
0.182

> <r_pdb_PDB_RESOLUTION>
1.55

> <s_pdb_PDB_EXPDTA>
X-RAY DIFFRACTION

> <r_pdb_PDB_EXPDTA_TEMPERATURE>
100

> <s_pdb_PDB_REMARK_350_Biomolecule_1_Transform_1_Chains>
A, B

> <s_pdb_PDB_REMARK_350_Biomolecule_1_Transform_1_Matrix_1>
1.000000 0.000000 0.000000   0.000000;0.000000 1.000000 0.000000   0.000000;0.000000 0.000000 1.000000   0.000000

> <s_m_Source_Path>
C:\Users\maila\Downloads\other-all-PDB

> <s_m_Source_File>
pdb6qr2.ent.gz

> <i_m_Source_File_Index>
1

> <s_ppw_entry_id_backup>
46

> <b_ppw_prepared>
1

> <s_ppw_prepared_with_version>
2021-1

> <b_ppw_assigned_bond_orders>
1

> <b_ppw_added_hydrogens>
1

> <b_ppw_treated_metals>
1

> <b_ppw_created_disulfur>
1

> <s_m_Chain_Name>
A

> <s_m_subgroup_title>
6QR2 - preprocessed_split_by_chain->6QR2 - preprocessed_chainA_split_by_structure

> <s_m_subgroupid>
6QR2 - preprocessed_split_by_chain->6QR2 - preprocessed_chainA_split_by_structure

> <b_m_subgroup_collapsed>
0

$$$$
