6QR3 - preprocessed_chainA_ligand
                    3D
 Schrodinger Suite 2021-1.
 47 50  0  0  1  0            999 V2000
  -23.4060   21.0110  -11.0170 C   0  0  0  0  0  0
  -20.6540   18.7060  -12.1670 C   0  0  0  0  0  0
  -20.8450   16.0430  -12.3940 C   0  0  0  0  0  0
  -18.7960   17.5580  -12.5900 C   0  0  0  0  0  0
  -23.0840   18.2490  -11.5830 C   0  0  0  0  0  0
  -24.3210   18.7040  -11.1280 C   0  0  0  0  0  0
  -25.5980   20.9090  -10.3740 C   0  0  0  0  0  0
  -22.2370   24.3320   -6.1460 C   0  0  0  0  0  0
  -21.6530   24.0760   -7.1790 N   0  0  1  0  0  0
  -22.5940   23.7420   -8.2070 C   0  0  0  0  0  0
  -20.7310   25.1340   -7.4850 C   0  0  0  0  0  0
  -20.2130   25.1510   -8.9040 C   0  0  0  0  0  0
  -21.1870   24.8170   -9.9070 C   0  0  0  0  0  0
  -21.9700   23.6610   -9.5940 C   0  0  2  0  0  0
  -23.0300   23.4990  -10.7440 C   0  0  0  0  0  0
  -23.8470   22.2890  -10.6640 N   0  0  0  0  0  0
  -22.1420   20.5460  -11.4730 C   0  0  0  0  0  0
  -22.0090   19.1740  -11.7780 C   0  0  0  0  0  0
  -20.1510   17.4190  -12.3430 C   0  0  0  0  0  0
  -21.2970   14.9830  -12.4450 N   0  0  0  0  0  0
  -17.8550   16.5280  -12.8620 N   0  0  0  0  0  0
  -18.4840   18.8650  -12.5070 N   0  0  0  0  0  0
  -19.6200   19.5580  -12.2240 N   0  0  0  0  0  0
  -24.4870   20.1070  -10.8490 C   0  0  0  0  0  0
  -25.1430   22.2520  -10.2950 C   0  0  0  0  0  0
  -22.9370   17.1989  -11.7882 H   0  0  0  0  0  0
  -25.1351   18.0078  -10.9903 H   0  0  0  0  0  0
  -26.5472   20.4419  -10.1568 H   0  0  0  0  0  0
  -21.5127   24.5844   -5.3715 H   0  0  0  0  0  0
  -22.9063   25.1773   -6.3063 H   0  0  0  0  0  0
  -22.8171   23.4645   -5.8314 H   0  0  0  0  0  0
  -23.3981   24.4778   -8.2144 H   0  0  0  0  0  0
  -23.0688   22.7905   -7.9677 H   0  0  0  0  0  0
  -19.8887   25.0887   -6.7946 H   0  0  0  0  0  0
  -21.1963   26.0936   -7.2599 H   0  0  0  0  0  0
  -19.3636   24.4728   -8.9861 H   0  0  0  0  0  0
  -19.7921   26.1324   -9.1226 H   0  0  0  0  0  0
  -20.6846   24.6654  -10.8624 H   0  0  0  0  0  0
  -21.8480   25.6688  -10.0668 H   0  0  0  0  0  0
  -21.3122   22.7922   -9.6173 H   0  0  0  0  0  0
  -22.5231   23.5287  -11.7085 H   0  0  0  0  0  0
  -23.6809   24.3732  -10.7602 H   0  0  0  0  0  0
  -21.3181   21.2365  -11.5772 H   0  0  0  0  0  0
  -16.8859   16.7600  -13.0268 H   0  0  0  0  0  0
  -18.1554   15.5641  -12.8904 H   0  0  0  0  0  0
  -17.5307   19.1667  -12.6497 H   0  0  0  0  0  0
  -25.8179   23.0330   -9.9773 H   0  0  0  0  0  0
  1 16  1  0  0  0
  1 17  2  0  0  0
  1 24  1  0  0  0
  2 18  1  0  0  0
  2 19  1  0  0  0
  2 23  2  0  0  0
  3 19  1  0  0  0
  3 20  3  0  0  0
  4 19  2  0  0  0
  4 21  1  0  0  0
  4 22  1  0  0  0
  5  6  1  0  0  0
  5 18  2  0  0  0
  5 26  1  0  0  0
  6 24  2  0  0  0
  6 27  1  0  0  0
  7 24  1  0  0  0
  7 25  2  0  0  0
  7 28  1  0  0  0
  8  9  1  0  0  0
  8 29  1  0  0  0
  8 30  1  0  0  0
  8 31  1  0  0  0
  9 10  1  0  0  0
  9 11  1  0  0  0
 10 14  1  0  0  0
 10 32  1  0  0  0
 10 33  1  0  0  0
 11 12  1  0  0  0
 11 34  1  0  0  0
 11 35  1  0  0  0
 12 13  1  0  0  0
 12 36  1  0  0  0
 12 37  1  0  0  0
 13 14  1  0  0  0
 13 38  1  0  0  0
 13 39  1  0  0  0
 14 15  1  0  0  0
 14 40  1  0  0  0
 15 16  1  0  0  0
 15 41  1  0  0  0
 15 42  1  0  0  0
 16 25  1  0  0  0
 17 18  1  0  0  0
 17 43  1  0  0  0
 21 44  1  0  0  0
 21 45  1  0  0  0
 22 23  1  0  0  0
 22 46  1  0  0  0
 25 47  1  0  0  0
M  END
> <s_m_entry_id>
381

> <s_m_entry_name>
pdb6qr3.ent.1_A_ligand

> <s_pdb_PDB_TITLE>
CRYSTAL STRUCTURE OF TRMD, A TRNA-(N1G37) METHYLTRANSFERASE, FROM MYCOBACTERIUM ABSCESSUS IN COMPLEX WITH INHIBITOR

> <s_pdb_PDB_ID>
6QR3

> <r_pdb_PDB_CRYST1_a>
74.87

> <r_pdb_PDB_CRYST1_b>
77.106

> <r_pdb_PDB_CRYST1_c>
86.663

> <r_pdb_PDB_CRYST1_alpha>
90

> <r_pdb_PDB_CRYST1_beta>
90

> <r_pdb_PDB_CRYST1_gamma>
90

> <s_pdb_PDB_CRYST1_Space_Group>
P 21 21 21

> <i_pdb_PDB_CRYST1_z>
8

> <s_pdb_PDB_CLASSIFICATION>
TRANSFERASE

> <s_pdb_PDB_DEPOSITION_DATE>
19-FEB-19

> <s_pdb_PDB_format_version>
3.30

> <r_pdb_PDB_R>
0.18

> <r_pdb_PDB_Rfree>
0.206

> <r_pdb_PDB_RESOLUTION>
1.61

> <s_pdb_PDB_EXPDTA>
X-RAY DIFFRACTION

> <r_pdb_PDB_EXPDTA_TEMPERATURE>
100

> <s_pdb_PDB_REMARK_350_Biomolecule_1_Transform_1_Chains>
A, B

> <s_pdb_PDB_REMARK_350_Biomolecule_1_Transform_1_Matrix_1>
1.000000 0.000000 0.000000   0.000000;0.000000 1.000000 0.000000   0.000000;0.000000 0.000000 1.000000   0.000000

> <s_m_Source_Path>
C:\Users\maila\Downloads\other-all-PDB

> <s_m_Source_File>
pdb6qr3.ent.gz

> <i_m_Source_File_Index>
1

> <s_ppw_entry_id_backup>
47

> <b_ppw_prepared>
1

> <s_ppw_prepared_with_version>
2021-1

> <b_ppw_assigned_bond_orders>
1

> <b_ppw_added_hydrogens>
1

> <b_ppw_treated_metals>
1

> <b_ppw_created_disulfur>
1

> <s_m_Chain_Name>
A

> <s_m_subgroup_title>
6QR3 - preprocessed_split_by_chain->6QR3 - preprocessed_chainA_split_by_structure

> <s_m_subgroupid>
6QR3 - preprocessed_split_by_chain->6QR3 - preprocessed_chainA_split_by_structure

> <b_m_subgroup_collapsed>
0

$$$$
