6QR4 - preprocessed_chainA_ligand
                    3D
 Schrodinger Suite 2021-1.
 47 50  0  0  1  0            999 V2000
  -24.2950   18.6470  -11.2440 C   0  0  0  0  0  0
  -25.1750   22.1830  -10.4000 C   0  0  0  0  0  0
  -23.1040   23.4450  -10.8470 C   0  0  0  0  0  0
  -21.5210   22.8970   -8.9540 C   0  0  0  0  0  0
  -21.6100   25.6390   -8.1990 C   0  0  0  0  0  0
  -21.2470   25.4340  -10.3540 C   0  0  0  0  0  0
  -20.7630   16.1110  -12.4590 C   0  0  0  0  0  0
  -17.7670   16.6310  -12.8920 N   0  0  0  0  0  0
  -18.7520   17.6400  -12.6350 C   0  0  0  0  0  0
  -18.4690   18.9770  -12.5560 N   0  0  0  0  0  0
  -19.6120   19.6350  -12.3130 N   0  0  0  0  0  0
  -20.6240   18.7450  -12.2660 C   0  0  0  0  0  0
  -22.0410   19.1840  -11.8810 C   0  0  0  0  0  0
  -22.2140   20.5470  -11.5790 C   0  0  0  0  0  0
  -23.4770   20.9630  -11.1270 C   0  0  0  0  0  0
  -24.5000   20.0480  -10.9590 C   0  0  0  0  0  0
  -23.0670   18.2250  -11.6760 C   0  0  0  0  0  0
  -25.5940   20.8140  -10.4890 C   0  0  0  0  0  0
  -23.9260   22.2460  -10.7760 N   0  0  0  0  0  0
  -22.5800   23.8690   -9.4740 C   0  0  1  0  0  0
  -21.0880   23.2330   -7.6250 C   0  0  0  0  0  0
  -20.7430   24.6150   -7.4480 C   0  0  0  0  0  0
  -22.1240   25.2300   -9.4770 N   0  0  1  0  0  0
  -20.1070   17.4630  -12.4170 C   0  0  0  0  0  0
  -21.1800   15.0670  -12.4990 N   0  0  0  0  0  0
  -25.1060   17.9455  -11.1155 H   0  0  0  0  0  0
  -25.8691   22.9395  -10.0647 H   0  0  0  0  0  0
  -23.6862   24.2585  -11.2798 H   0  0  0  0  0  0
  -22.2628   23.2686  -11.5174 H   0  0  0  0  0  0
  -20.6634   22.9013   -9.6267 H   0  0  0  0  0  0
  -21.9247   21.8845   -8.9587 H   0  0  0  0  0  0
  -21.0490   26.5660   -8.3177 H   0  0  0  0  0  0
  -22.4384   25.9452   -7.5602 H   0  0  0  0  0  0
  -21.6279   25.1266  -11.3279 H   0  0  0  0  0  0
  -20.9984   26.4949  -10.3801 H   0  0  0  0  0  0
  -20.3531   24.8576  -10.1156 H   0  0  0  0  0  0
  -18.0394   15.6595  -12.9384 H   0  0  0  0  0  0
  -16.8005   16.8915  -13.0267 H   0  0  0  0  0  0
  -17.5198   19.3003  -12.6771 H   0  0  0  0  0  0
  -21.3901   21.2352  -11.6975 H   0  0  0  0  0  0
  -22.8894   17.1750  -11.8561 H   0  0  0  0  0  0
  -26.6017   20.5388  -10.2148 H   0  0  0  0  0  0
  -23.4223   23.8186   -8.7840 H   0  0  0  0  0  0
  -20.2351   22.6104   -7.3548 H   0  0  0  0  0  0
  -21.8662   22.9608   -6.9120 H   0  0  0  0  0  0
  -20.7469   24.8527   -6.3842 H   0  0  0  0  0  0
  -19.6976   24.7618   -7.7196 H   0  0  0  0  0  0
  1 16  2  0  0  0
  1 17  1  0  0  0
  1 26  1  0  0  0
  2 18  2  0  0  0
  2 19  1  0  0  0
  2 27  1  0  0  0
  3 19  1  0  0  0
  3 20  1  0  0  0
  3 28  1  0  0  0
  3 29  1  0  0  0
  4 20  1  0  0  0
  4 21  1  0  0  0
  4 30  1  0  0  0
  4 31  1  0  0  0
  5 22  1  0  0  0
  5 23  1  0  0  0
  5 32  1  0  0  0
  5 33  1  0  0  0
  6 23  1  0  0  0
  6 34  1  0  0  0
  6 35  1  0  0  0
  6 36  1  0  0  0
  7 24  1  0  0  0
  7 25  3  0  0  0
  8  9  1  0  0  0
  8 37  1  0  0  0
  8 38  1  0  0  0
  9 10  1  0  0  0
  9 24  2  0  0  0
 10 11  1  0  0  0
 10 39  1  0  0  0
 11 12  2  0  0  0
 12 13  1  0  0  0
 12 24  1  0  0  0
 13 14  1  0  0  0
 13 17  2  0  0  0
 14 15  2  0  0  0
 14 40  1  0  0  0
 15 16  1  0  0  0
 15 19  1  0  0  0
 16 18  1  0  0  0
 17 41  1  0  0  0
 18 42  1  0  0  0
 20 23  1  0  0  0
 20 43  1  0  0  0
 21 22  1  0  0  0
 21 44  1  0  0  0
 21 45  1  0  0  0
 22 46  1  0  0  0
 22 47  1  0  0  0
M  END
> <s_m_entry_id>
386

> <s_m_entry_name>
pdb6qr4.ent.1_A_ligand

> <s_pdb_PDB_TITLE>
CRYSTAL STRUCTURE OF TRMD, A TRNA-(N1G37) METHYLTRANSFERASE, FROM MYCOBACTERIUM ABSCESSUS IN COMPLEX WITH INHIBITOR

> <s_pdb_PDB_ID>
6QR4

> <r_pdb_PDB_CRYST1_a>
74.79

> <r_pdb_PDB_CRYST1_b>
77.652

> <r_pdb_PDB_CRYST1_c>
86.845

> <r_pdb_PDB_CRYST1_alpha>
90

> <r_pdb_PDB_CRYST1_beta>
90

> <r_pdb_PDB_CRYST1_gamma>
90

> <s_pdb_PDB_CRYST1_Space_Group>
P 21 21 21

> <i_pdb_PDB_CRYST1_z>
8

> <s_pdb_PDB_CLASSIFICATION>
TRANSFERASE

> <s_pdb_PDB_DEPOSITION_DATE>
19-FEB-19

> <s_pdb_PDB_format_version>
3.30

> <r_pdb_PDB_R>
0.185

> <r_pdb_PDB_Rfree>
0.206

> <r_pdb_PDB_RESOLUTION>
1.52

> <s_pdb_PDB_EXPDTA>
X-RAY DIFFRACTION

> <r_pdb_PDB_EXPDTA_TEMPERATURE>
100

> <s_pdb_PDB_REMARK_350_Biomolecule_1_Transform_1_Chains>
A, B

> <s_pdb_PDB_REMARK_350_Biomolecule_1_Transform_1_Matrix_1>
1.000000 0.000000 0.000000   0.000000;0.000000 1.000000 0.000000   0.000000;0.000000 0.000000 1.000000   0.000000

> <s_m_Source_Path>
C:\Users\maila\Downloads\other-all-PDB

> <s_m_Source_File>
pdb6qr4.ent.gz

> <i_m_Source_File_Index>
1

> <s_ppw_entry_id_backup>
48

> <b_ppw_prepared>
1

> <s_ppw_prepared_with_version>
2021-1

> <b_ppw_assigned_bond_orders>
1

> <b_ppw_added_hydrogens>
1

> <b_ppw_treated_metals>
1

> <b_ppw_created_disulfur>
1

> <s_m_Chain_Name>
A

> <s_m_subgroup_title>
6QR4 - preprocessed_split_by_chain->6QR4 - preprocessed_chainA_split_by_structure

> <s_m_subgroupid>
6QR4 - preprocessed_split_by_chain->6QR4 - preprocessed_chainA_split_by_structure

> <b_m_subgroup_collapsed>
0

$$$$
