6QR5 - preprocessed_chainA_ligand
                    3D
 Schrodinger Suite 2021-1.
 53 57  0  0  1  0            999 V2000
  -23.2930   21.1920  -11.5390 C   0  0  0  0  0  0
  -22.0700   24.0190  -10.1210 C   0  0  0  0  0  0
  -21.4690   23.6320   -7.8130 C   0  0  0  0  0  0
  -19.8840   25.2770   -6.5810 C   0  0  0  0  0  0
  -16.7660   23.8560   -6.5720 C   0  0  0  0  0  0
  -16.8080   24.7030   -5.6800 C   0  0  0  0  0  0
  -18.3520   24.8560   -5.2580 C   0  0  0  0  0  0
  -21.2910   25.1790  -10.1390 C   0  0  0  0  0  0
  -25.4580   21.2740  -10.9850 C   0  0  0  0  0  0
  -20.1950   17.3380  -12.3330 C   0  0  0  0  0  0
  -18.8420   17.3080  -12.6410 C   0  0  0  0  0  0
  -20.5870   18.6540  -12.4350 C   0  0  0  0  0  0
  -21.9430   19.2240  -12.1120 C   0  0  0  0  0  0
  -23.0450   18.4020  -11.9100 C   0  0  0  0  0  0
  -24.2710   18.9640  -11.5430 C   0  0  0  0  0  0
  -24.3790   20.3870  -11.3540 C   0  0  0  0  0  0
  -22.7970   23.6440  -11.4070 C   0  0  0  0  0  0
  -22.1520   23.2300   -8.9510 C   0  0  0  0  0  0
  -20.6810   24.8040   -7.8370 C   0  0  0  0  0  0
  -18.1250   23.9770   -7.2670 C   0  0  0  0  0  0
  -20.5980   25.5790   -9.0040 C   0  0  0  0  0  0
  -24.9480   22.5630  -10.9720 C   0  0  0  0  0  0
  -22.0350   20.6170  -11.9140 C   0  0  0  0  0  0
  -17.9950   16.1680  -12.6940 N   0  0  0  0  0  0
  -18.4520   18.5890  -12.8720 N   0  0  0  0  0  0
  -19.5190   19.3840  -12.7250 N   0  0  0  0  0  0
  -23.6620   22.4980  -11.2890 N   0  0  0  0  0  0
  -19.0720   24.4150   -6.2040 N   0  0  0  0  0  0
  -21.5392   23.0487   -6.9068 H   0  0  0  0  0  0
  -20.5800   25.4982   -5.7718 H   0  0  0  0  0  0
  -19.3517   26.1989   -6.8152 H   0  0  0  0  0  0
  -16.6762   22.8658   -6.1252 H   0  0  0  0  0  0
  -15.9760   24.1138   -7.2773 H   0  0  0  0  0  0
  -16.4418   25.6543   -6.0660 H   0  0  0  0  0  0
  -16.2307   24.3558   -4.8231 H   0  0  0  0  0  0
  -18.5795   25.9085   -5.0890 H   0  0  0  0  0  0
  -18.5412   24.2739   -4.3561 H   0  0  0  0  0  0
  -21.2249   25.7711  -11.0398 H   0  0  0  0  0  0
  -26.4403   20.8739  -10.7815 H   0  0  0  0  0  0
  -20.7116   16.4239  -12.0800 H   0  0  0  0  0  0
  -22.9521   17.3335  -12.0367 H   0  0  0  0  0  0
  -25.1346   18.3310  -11.4019 H   0  0  0  0  0  0
  -22.0664   23.4652  -12.1959 H   0  0  0  0  0  0
  -23.3758   24.4988  -11.7570 H   0  0  0  0  0  0
  -22.7418   22.3253   -8.9500 H   0  0  0  0  0  0
  -18.4283   22.9991   -7.6409 H   0  0  0  0  0  0
  -18.0690   24.7437   -8.0397 H   0  0  0  0  0  0
  -20.0019   26.4794   -9.0246 H   0  0  0  0  0  0
  -25.5913   23.3958  -10.7290 H   0  0  0  0  0  0
  -21.1690   21.2494  -12.0423 H   0  0  0  0  0  0
  -17.0193   16.2745  -12.9321 H   0  0  0  0  0  0
  -18.3688   15.2514  -12.4936 H   0  0  0  0  0  0
  -17.4906   18.7895  -13.1079 H   0  0  0  0  0  0
  1 16  2  0  0  0
  1 23  1  0  0  0
  1 27  1  0  0  0
  2  8  2  0  0  0
  2 17  1  0  0  0
  2 18  1  0  0  0
  3 18  2  0  0  0
  3 19  1  0  0  0
  3 29  1  0  0  0
  4 19  1  0  0  0
  4 28  1  0  0  0
  4 30  1  0  0  0
  4 31  1  0  0  0
  5  6  1  0  0  0
  5 20  1  0  0  0
  5 32  1  0  0  0
  5 33  1  0  0  0
  6  7  1  0  0  0
  6 34  1  0  0  0
  6 35  1  0  0  0
  7 28  1  0  0  0
  7 36  1  0  0  0
  7 37  1  0  0  0
  8 21  1  0  0  0
  8 38  1  0  0  0
  9 16  1  0  0  0
  9 22  2  0  0  0
  9 39  1  0  0  0
 10 11  2  0  0  0
 10 12  1  0  0  0
 10 40  1  0  0  0
 11 24  1  0  0  0
 11 25  1  0  0  0
 12 13  1  0  0  0
 12 26  2  0  0  0
 13 14  1  0  0  0
 13 23  2  0  0  0
 14 15  2  0  0  0
 14 41  1  0  0  0
 15 16  1  0  0  0
 15 42  1  0  0  0
 17 27  1  0  0  0
 17 43  1  0  0  0
 17 44  1  0  0  0
 18 45  1  0  0  0
 19 21  2  0  0  0
 20 28  1  0  0  0
 20 46  1  0  0  0
 20 47  1  0  0  0
 21 48  1  0  0  0
 22 27  1  0  0  0
 22 49  1  0  0  0
 23 50  1  0  0  0
 24 51  1  0  0  0
 24 52  1  0  0  0
 25 26  1  0  0  0
 25 53  1  0  0  0
M  END
> <s_m_entry_id>
391

> <s_m_entry_name>
pdb6qr5.ent.1_A_ligand

> <s_pdb_PDB_TITLE>
CRYSTAL STRUCTURE OF TRMD, A TRNA-(N1G37) METHYLTRANSFERASE, FROM MYCOBACTERIUM ABSCESSUS IN COMPLEX WITH INHIBITOR

> <s_pdb_PDB_ID>
6QR5

> <r_pdb_PDB_CRYST1_a>
74.183

> <r_pdb_PDB_CRYST1_b>
77.985

> <r_pdb_PDB_CRYST1_c>
86.363

> <r_pdb_PDB_CRYST1_alpha>
90

> <r_pdb_PDB_CRYST1_beta>
90

> <r_pdb_PDB_CRYST1_gamma>
90

> <s_pdb_PDB_CRYST1_Space_Group>
P 21 21 21

> <i_pdb_PDB_CRYST1_z>
8

> <s_pdb_PDB_CLASSIFICATION>
TRANSFERASE

> <s_pdb_PDB_DEPOSITION_DATE>
19-FEB-19

> <s_pdb_PDB_format_version>
3.30

> <r_pdb_PDB_R>
0.19

> <r_pdb_PDB_Rfree>
0.218

> <r_pdb_PDB_RESOLUTION>
1.81

> <s_pdb_PDB_EXPDTA>
X-RAY DIFFRACTION

> <r_pdb_PDB_EXPDTA_TEMPERATURE>
100

> <s_pdb_PDB_REMARK_350_Biomolecule_1_Transform_1_Chains>
A, B

> <s_pdb_PDB_REMARK_350_Biomolecule_1_Transform_1_Matrix_1>
1.000000 0.000000 0.000000   0.000000;0.000000 1.000000 0.000000   0.000000;0.000000 0.000000 1.000000   0.000000

> <s_m_Source_Path>
C:\Users\maila\Downloads\other-all-PDB

> <s_m_Source_File>
pdb6qr5.ent.gz

> <i_m_Source_File_Index>
1

> <s_ppw_entry_id_backup>
49

> <b_ppw_prepared>
1

> <s_ppw_prepared_with_version>
2021-1

> <b_ppw_assigned_bond_orders>
1

> <b_ppw_added_hydrogens>
1

> <b_ppw_treated_metals>
1

> <b_ppw_created_disulfur>
1

> <s_m_Chain_Name>
A

> <s_m_subgroup_title>
6QR5 - preprocessed_split_by_chain->6QR5 - preprocessed_chainA_split_by_structure

> <s_m_subgroupid>
6QR5 - preprocessed_split_by_chain->6QR5 - preprocessed_chainA_split_by_structure

> <b_m_subgroup_collapsed>
0

$$$$
