6QR6 - preprocessed_chainA_ligand
                    3D
 Schrodinger Suite 2021-1.
 54 58  0  0  1  0            999 V2000
  -24.4290  -18.7050   11.3930 C   0  0  0  0  0  0
  -25.3420  -22.1850   10.6610 C   0  0  0  0  0  0
  -23.2680  -23.4560   11.0820 C   0  0  0  0  0  0
  -22.6810  -23.2740    8.5530 C   0  0  0  0  0  0
  -19.9410  -25.0700    6.4890 C   0  0  0  0  0  0
  -18.3010  -24.8590    5.3930 C   0  0  0  0  0  0
  -17.1220  -23.3040    6.7660 C   0  0  0  0  0  0
  -20.6070  -25.1450    8.9120 C   0  0  0  0  0  0
  -20.1870  -17.4630   12.5160 C   0  0  0  0  0  0
  -17.9000  -16.6000   12.9780 N   0  0  0  0  0  0
  -18.8440  -17.6360   12.7220 C   0  0  0  0  0  0
  -18.5700  -18.9600   12.6260 N   0  0  0  0  0  0
  -19.7430  -19.6210   12.3710 N   0  0  0  0  0  0
  -20.7320  -18.7590   12.3440 C   0  0  0  0  0  0
  -22.1470  -19.1870   11.9880 C   0  0  0  0  0  0
  -22.3180  -20.5330   11.7160 C   0  0  0  0  0  0
  -23.6000  -20.9850   11.3110 C   0  0  0  0  0  0
  -24.6280  -20.0820   11.1470 C   0  0  0  0  0  0
  -23.1730  -18.2560   11.8010 C   0  0  0  0  0  0
  -25.7450  -20.8540   10.7210 C   0  0  0  0  0  0
  -24.0660  -22.2440   10.9960 N   0  0  0  0  0  0
  -22.4320  -23.8180    9.8010 C   0  0  0  0  0  0
  -21.8810  -23.6660    7.4620 C   0  0  0  0  0  0
  -20.8350  -24.5930    7.6510 C   0  0  0  0  0  0
  -19.1490  -24.2680    6.0620 N   0  0  0  0  0  0
  -16.9850  -24.0420    5.5410 C   0  0  0  0  0  0
  -18.3730  -23.4310    7.1460 C   0  0  0  0  0  0
  -21.3910  -24.7540    9.9850 C   0  0  0  0  0  0
  -20.8570  -16.1020   12.5720 C   0  0  0  0  0  0
  -21.2820  -15.0730   12.6290 N   0  0  0  0  0  0
  -25.2457  -18.0100   11.2648 H   0  0  0  0  0  0
  -26.0480  -22.9506   10.3748 H   0  0  0  0  0  0
  -23.9147  -24.2951   11.3385 H   0  0  0  0  0  0
  -22.5995  -23.3864   11.9401 H   0  0  0  0  0  0
  -23.4801  -22.5588    8.4253 H   0  0  0  0  0  0
  -20.5710  -25.4227    5.6724 H   0  0  0  0  0  0
  -19.4105  -25.9730    6.7911 H   0  0  0  0  0  0
  -18.6064  -24.8673    4.3467 H   0  0  0  0  0  0
  -18.1533  -25.8601    5.7981 H   0  0  0  0  0  0
  -16.9042  -22.2520    6.5816 H   0  0  0  0  0  0
  -16.4675  -23.7348    7.5238 H   0  0  0  0  0  0
  -19.8219  -25.8740    9.0484 H   0  0  0  0  0  0
  -16.9259  -16.8276   13.1176 H   0  0  0  0  0  0
  -18.2049  -15.6380   13.0199 H   0  0  0  0  0  0
  -17.6221  -19.2892   12.7412 H   0  0  0  0  0  0
  -21.4853  -21.2137   11.8139 H   0  0  0  0  0  0
  -23.0041  -17.2024   11.9678 H   0  0  0  0  0  0
  -26.7586  -20.5845   10.4632 H   0  0  0  0  0  0
  -22.0685  -23.2567    6.4803 H   0  0  0  0  0  0
  -16.8956  -23.3457    4.7071 H   0  0  0  0  0  0
  -16.1412  -24.7270    5.6237 H   0  0  0  0  0  0
  -18.8270  -22.4442    7.2362 H   0  0  0  0  0  0
  -18.4107  -23.9522    8.1026 H   0  0  0  0  0  0
  -21.2070  -25.1653   10.9665 H   0  0  0  0  0  0
  1 18  1  0  0  0
  1 19  2  0  0  0
  1 31  1  0  0  0
  2 20  2  0  0  0
  2 21  1  0  0  0
  2 32  1  0  0  0
  3 21  1  0  0  0
  3 22  1  0  0  0
  3 33  1  0  0  0
  3 34  1  0  0  0
  4 22  2  0  0  0
  4 23  1  0  0  0
  4 35  1  0  0  0
  5 24  1  0  0  0
  5 25  1  0  0  0
  5 36  1  0  0  0
  5 37  1  0  0  0
  6 25  1  0  0  0
  6 26  1  0  0  0
  6 38  1  0  0  0
  6 39  1  0  0  0
  7 26  1  0  0  0
  7 27  1  0  0  0
  7 40  1  0  0  0
  7 41  1  0  0  0
  8 24  1  0  0  0
  8 28  2  0  0  0
  8 42  1  0  0  0
  9 11  2  0  0  0
  9 14  1  0  0  0
  9 29  1  0  0  0
 10 11  1  0  0  0
 10 43  1  0  0  0
 10 44  1  0  0  0
 11 12  1  0  0  0
 12 13  1  0  0  0
 12 45  1  0  0  0
 13 14  2  0  0  0
 14 15  1  0  0  0
 15 16  2  0  0  0
 15 19  1  0  0  0
 16 17  1  0  0  0
 16 46  1  0  0  0
 17 18  2  0  0  0
 17 21  1  0  0  0
 18 20  1  0  0  0
 19 47  1  0  0  0
 20 48  1  0  0  0
 22 28  1  0  0  0
 23 24  2  0  0  0
 23 49  1  0  0  0
 25 27  1  0  0  0
 26 50  1  0  0  0
 26 51  1  0  0  0
 27 52  1  0  0  0
 27 53  1  0  0  0
 28 54  1  0  0  0
 29 30  3  0  0  0
M  END
> <s_m_entry_id>
75

> <s_m_entry_name>
pdb6qr6.ent.1_A_ligand

> <s_pdb_PDB_TITLE>
CRYSTAL STRUCTURE OF TRMD, A TRNA-(N1G37) METHYLTRANSFERASE, FROM MYCOBACTERIUM ABSCESSUS IN COMPLEX WITH INHIBITOR

> <s_pdb_PDB_ID>
6QR6

> <r_pdb_PDB_CRYST1_a>
74.95

> <r_pdb_PDB_CRYST1_b>
77.483

> <r_pdb_PDB_CRYST1_c>
87.347

> <r_pdb_PDB_CRYST1_alpha>
90

> <r_pdb_PDB_CRYST1_beta>
90

> <r_pdb_PDB_CRYST1_gamma>
90

> <s_pdb_PDB_CRYST1_Space_Group>
P 21 21 21

> <i_pdb_PDB_CRYST1_z>
8

> <s_pdb_PDB_CLASSIFICATION>
TRANSFERASE

> <s_pdb_PDB_DEPOSITION_DATE>
19-FEB-19

> <s_pdb_PDB_format_version>
3.30

> <r_pdb_PDB_R>
0.182

> <r_pdb_PDB_Rfree>
0.199

> <r_pdb_PDB_RESOLUTION>
1.71

> <s_pdb_PDB_EXPDTA>
X-RAY DIFFRACTION

> <r_pdb_PDB_EXPDTA_TEMPERATURE>
100

> <s_pdb_PDB_REMARK_350_Biomolecule_1_Transform_1_Chains>
A, B

> <s_pdb_PDB_REMARK_350_Biomolecule_1_Transform_1_Matrix_1>
1.000000 0.000000 0.000000   0.000000;0.000000 1.000000 0.000000   0.000000;0.000000 0.000000 1.000000   0.000000

> <s_m_Source_Path>
C:\Users\maila\Downloads\other-all-PDB

> <s_m_Source_File>
pdb6qr6.ent.gz

> <i_m_Source_File_Index>
1

> <s_ppw_entry_id_backup>
2

> <b_ppw_prepared>
1

> <s_ppw_prepared_with_version>
2021-1

> <b_ppw_assigned_bond_orders>
1

> <b_ppw_added_hydrogens>
1

> <b_ppw_treated_metals>
1

> <b_ppw_created_disulfur>
1

> <s_m_Chain_Name>
A

> <s_m_subgroup_title>
6QR6 - preprocessed_split_by_chain->6QR6 - preprocessed_chainA_split_by_structure

> <s_m_subgroupid>
6QR6 - preprocessed_split_by_chain->6QR6 - preprocessed_chainA_split_by_structure

> <b_m_subgroup_collapsed>
0

$$$$
