6QR7 - preprocessed_ligand1
                    3D
 Schrodinger Suite 2021-1.
 57 61  0  0  1  0            999 V2000
  -24.3980  -18.8600   11.5010 C   0  0  0  0  0  0
  -25.3450  -22.3570   10.6650 C   0  0  0  0  0  0
  -23.2070  -23.6170   11.0130 C   0  0  0  0  0  0
  -22.8550  -23.4750    8.4860 C   0  0  0  0  0  0
  -19.8740  -24.6550    6.2290 C   0  0  0  0  0  0
  -19.3470  -26.8510    6.3790 C   0  0  0  0  0  0
  -19.4540  -27.9840    4.2150 C   0  0  0  0  0  0
  -20.5470  -25.7910    4.4590 C   0  0  0  0  0  0
  -21.1370  -24.4530    9.8780 C   0  0  0  0  0  0
  -17.8090  -16.8440   12.9900 N   0  0  0  0  0  0
  -18.7190  -17.8340   12.7410 C   0  0  0  0  0  0
  -18.4570  -19.1700   12.6360 N   0  0  0  0  0  0
  -19.6290  -19.7970   12.4040 N   0  0  0  0  0  0
  -20.6450  -18.9220   12.3890 C   0  0  0  0  0  0
  -22.0810  -19.3420   12.0440 C   0  0  0  0  0  0
  -22.2860  -20.6850   11.7320 C   0  0  0  0  0  0
  -23.5800  -21.1200   11.3300 C   0  0  0  0  0  0
  -24.6160  -20.2220   11.2120 C   0  0  0  0  0  0
  -23.1170  -18.4220   11.9030 C   0  0  0  0  0  0
  -25.7690  -21.0180   10.7820 C   0  0  0  0  0  0
  -24.0460  -22.3990   10.9770 N   0  0  0  0  0  0
  -22.3890  -23.8390    9.7450 C   0  0  0  0  0  0
  -22.0610  -23.7370    7.3490 C   0  0  0  0  0  0
  -20.7790  -24.3560    7.4890 C   0  0  0  0  0  0
  -20.1390  -25.7480    5.8240 N   0  0  0  0  0  0
  -18.6590  -27.7590    5.3720 C   0  0  0  0  0  0
  -19.7420  -26.7140    3.5600 C   0  0  0  0  0  0
  -20.3350  -24.7110    8.7250 C   0  0  0  0  0  0
  -20.0960  -17.6660   12.5640 C   0  0  0  0  0  0
  -20.7980  -16.2640   12.6260 C   0  0  0  0  0  0
  -21.2690  -15.2000   12.6770 N   0  0  0  0  0  0
  -25.2099  -18.1530   11.4149 H   0  0  0  0  0  0
  -26.0469  -23.1216   10.3664 H   0  0  0  0  0  0
  -23.8395  -24.4865   11.1921 H   0  0  0  0  0  0
  -22.5372  -23.5694   11.8716 H   0  0  0  0  0  0
  -23.8175  -22.9959    8.3842 H   0  0  0  0  0  0
  -18.8241  -24.6203    6.5198 H   0  0  0  0  0  0
  -20.0803  -23.9198    5.4512 H   0  0  0  0  0  0
  -19.9780  -27.4528    7.0330 H   0  0  0  0  0  0
  -18.6033  -26.4487    7.0668 H   0  0  0  0  0  0
  -20.3891  -28.4634    4.5046 H   0  0  0  0  0  0
  -18.9157  -28.6343    3.5255 H   0  0  0  0  0  0
  -20.5304  -24.7822    4.0464 H   0  0  0  0  0  0
  -21.6004  -26.0663    4.4067 H   0  0  0  0  0  0
  -20.7743  -24.7335   10.8558 H   0  0  0  0  0  0
  -18.1121  -15.8823   13.0478 H   0  0  0  0  0  0
  -16.8338  -17.0745   13.1161 H   0  0  0  0  0  0
  -17.5103  -19.5082   12.7336 H   0  0  0  0  0  0
  -21.4665  -21.3855   11.7964 H   0  0  0  0  0  0
  -22.9418  -17.3748   12.1006 H   0  0  0  0  0  0
  -26.7934  -20.7549   10.5636 H   0  0  0  0  0  0
  -22.4204  -23.4699    6.3662 H   0  0  0  0  0  0
  -18.4275  -28.7139    5.8440 H   0  0  0  0  0  0
  -17.7069  -27.3176    5.0773 H   0  0  0  0  0  0
  -20.2963  -26.8980    2.6397 H   0  0  0  0  0  0
  -18.8063  -26.2272    3.2852 H   0  0  0  0  0  0
  -19.3727  -25.1893    8.8326 H   0  0  0  0  0  0
  1 18  1  0  0  0
  1 19  2  0  0  0
  1 32  1  0  0  0
  2 20  2  0  0  0
  2 21  1  0  0  0
  2 33  1  0  0  0
  3 21  1  0  0  0
  3 22  1  0  0  0
  3 34  1  0  0  0
  3 35  1  0  0  0
  4 22  2  0  0  0
  4 23  1  0  0  0
  4 36  1  0  0  0
  5 24  1  0  0  0
  5 25  1  0  0  0
  5 37  1  0  0  0
  5 38  1  0  0  0
  6 25  1  0  0  0
  6 26  1  0  0  0
  6 39  1  0  0  0
  6 40  1  0  0  0
  7 26  1  0  0  0
  7 27  1  0  0  0
  7 41  1  0  0  0
  7 42  1  0  0  0
  8 25  1  0  0  0
  8 27  1  0  0  0
  8 43  1  0  0  0
  8 44  1  0  0  0
  9 22  1  0  0  0
  9 28  2  0  0  0
  9 45  1  0  0  0
 10 11  1  0  0  0
 10 46  1  0  0  0
 10 47  1  0  0  0
 11 12  1  0  0  0
 11 29  2  0  0  0
 12 13  1  0  0  0
 12 48  1  0  0  0
 13 14  2  0  0  0
 14 15  1  0  0  0
 14 29  1  0  0  0
 15 16  2  0  0  0
 15 19  1  0  0  0
 16 17  1  0  0  0
 16 49  1  0  0  0
 17 18  2  0  0  0
 17 21  1  0  0  0
 18 20  1  0  0  0
 19 50  1  0  0  0
 20 51  1  0  0  0
 23 24  2  0  0  0
 23 52  1  0  0  0
 24 28  1  0  0  0
 26 53  1  0  0  0
 26 54  1  0  0  0
 27 55  1  0  0  0
 27 56  1  0  0  0
 28 57  1  0  0  0
 29 30  1  0  0  0
 30 31  3  0  0  0
M  END
> <s_m_entry_id>
78

> <s_m_entry_name>
pdb6qr7.ent.1_ligand1

> <s_pdb_PDB_TITLE>
CRYSTAL STRUCTURE OF TRMD, A TRNA-(N1G37) METHYLTRANSFERASE, FROM MYCOBACTERIUM ABSCESSUS IN COMPLEX WITH INHIBITOR

> <s_pdb_PDB_ID>
6QR7

> <r_pdb_PDB_CRYST1_a>
75.011

> <r_pdb_PDB_CRYST1_b>
77.787

> <r_pdb_PDB_CRYST1_c>
86.943

> <r_pdb_PDB_CRYST1_alpha>
90

> <r_pdb_PDB_CRYST1_beta>
90

> <r_pdb_PDB_CRYST1_gamma>
90

> <s_pdb_PDB_CRYST1_Space_Group>
P 21 21 21

> <i_pdb_PDB_CRYST1_z>
8

> <s_pdb_PDB_CLASSIFICATION>
TRANSFERASE

> <s_pdb_PDB_DEPOSITION_DATE>
19-FEB-19

> <s_pdb_PDB_format_version>
3.30

> <r_pdb_PDB_R>
0.188

> <r_pdb_PDB_Rfree>
0.226

> <r_pdb_PDB_RESOLUTION>
2.03

> <s_pdb_PDB_EXPDTA>
X-RAY DIFFRACTION

> <r_pdb_PDB_EXPDTA_TEMPERATURE>
100

> <s_pdb_PDB_REMARK_350_Biomolecule_1_Transform_1_Chains>
A, B

> <s_pdb_PDB_REMARK_350_Biomolecule_1_Transform_1_Matrix_1>
1.000000 0.000000 0.000000   0.000000;0.000000 1.000000 0.000000   0.000000;0.000000 0.000000 1.000000   0.000000

> <s_m_Source_Path>
C:\Users\maila\Downloads\other-all-PDB

> <s_m_Source_File>
pdb6qr7.ent.gz

> <i_m_Source_File_Index>
1

> <s_ppw_entry_id_backup>
3

> <b_ppw_prepared>
1

> <s_ppw_prepared_with_version>
2021-1

> <b_ppw_assigned_bond_orders>
1

> <b_ppw_added_hydrogens>
1

> <b_ppw_treated_metals>
1

> <b_ppw_created_disulfur>
1

> <s_m_subgroup_title>
6QR7 - preprocessed_split_by_structure

> <s_m_subgroupid>
6QR7 - preprocessed_split_by_structure

> <b_m_subgroup_collapsed>
0

$$$$
