6QR8_chainA - preprocessed_ligand
                    3D
 Schrodinger Suite 2021-1.
 59 63  0  0  1  0            999 V2000
  -24.6170  -18.6980   11.4930 C   0  0  0  0  0  0
  -25.5380  -22.1790   10.6110 C   0  0  0  0  0  0
  -23.4270  -23.4180   10.9560 C   0  0  0  0  0  0
  -23.0510  -23.0420    8.4730 C   0  0  0  0  0  0
  -20.3610  -24.2530    5.9350 C   0  0  0  0  0  0
  -18.7550  -22.9300    6.5980 C   0  0  0  0  0  0
  -16.9340  -24.1540    4.9900 C   0  0  0  0  0  0
  -20.7250  -24.6350    8.5220 C   0  0  0  0  0  0
  -17.9750  -16.5950   13.0060 N   0  0  0  0  0  0
  -18.9200  -17.6570   12.7490 C   0  0  0  0  0  0
  -18.6430  -18.9860   12.6380 N   0  0  0  0  0  0
  -19.8080  -19.6440   12.4040 N   0  0  0  0  0  0
  -20.8460  -18.7810   12.4160 C   0  0  0  0  0  0
  -22.2980  -19.1930   12.0720 C   0  0  0  0  0  0
  -22.5080  -20.5280   11.7240 C   0  0  0  0  0  0
  -23.7930  -20.9770   11.2940 C   0  0  0  0  0  0
  -24.8390  -20.0650   11.1790 C   0  0  0  0  0  0
  -23.3460  -18.2540   11.9230 C   0  0  0  0  0  0
  -25.9600  -20.8470   10.7390 C   0  0  0  0  0  0
  -24.2440  -22.2280   10.9510 N   0  0  0  0  0  0
  -22.6330  -23.6230    9.6810 C   0  0  0  0  0  0
  -22.3130  -23.2610    7.2880 C   0  0  0  0  0  0
  -21.1530  -24.0410    7.3000 C   0  0  0  0  0  0
  -19.0650  -24.1410    6.0870 N   0  0  0  0  0  0
  -17.2600  -22.7470    6.7890 C   0  0  0  0  0  0
  -16.5120  -23.0790    5.7010 N   0  0  0  0  0  0
  -16.2570  -22.0570    4.9550 C   0  0  0  0  0  0
  -18.4420  -24.3190    4.8930 C   0  0  0  0  0  0
  -21.4660  -24.4180    9.7050 C   0  0  0  0  0  0
  -20.3150  -17.5090   12.5880 C   0  0  0  0  0  0
  -21.0130  -16.1820   12.6680 C   0  0  0  0  0  0
  -21.4790  -15.1640   12.7380 N   0  0  0  0  0  0
  -25.4239  -17.9856   11.4042 H   0  0  0  0  0  0
  -26.2347  -22.9373   10.2855 H   0  0  0  0  0  0
  -24.0581  -24.2890   11.1328 H   0  0  0  0  0  0
  -22.7446  -23.3844   11.8053 H   0  0  0  0  0  0
  -23.9380  -22.4264    8.4483 H   0  0  0  0  0  0
  -20.7040  -23.5246    5.2002 H   0  0  0  0  0  0
  -20.5946  -25.2375    5.5297 H   0  0  0  0  0  0
  -19.2611  -22.8000    7.5546 H   0  0  0  0  0  0
  -19.1341  -22.1502    5.9375 H   0  0  0  0  0  0
  -16.4991  -25.0593    5.4135 H   0  0  0  0  0  0
  -16.5111  -24.1107    3.9863 H   0  0  0  0  0  0
  -19.8367  -25.2489    8.5420 H   0  0  0  0  0  0
  -18.2945  -15.6389   13.0685 H   0  0  0  0  0  0
  -16.9948  -16.8086   13.1232 H   0  0  0  0  0  0
  -17.6921  -19.3132   12.7320 H   0  0  0  0  0  0
  -21.6932  -21.2348   11.7784 H   0  0  0  0  0  0
  -23.1825  -17.2075   12.1341 H   0  0  0  0  0  0
  -26.9823  -20.5805   10.5146 H   0  0  0  0  0  0
  -22.6433  -22.8234    6.3575 H   0  0  0  0  0  0
  -16.9309  -23.3341    7.6464 H   0  0  0  0  0  0
  -17.0552  -21.7129    7.0662 H   0  0  0  0  0  0
  -15.9235  -21.2265    5.5772 H   0  0  0  0  0  0
  -15.4736  -22.3135    4.2419 H   0  0  0  0  0  0
  -17.1583  -21.7667    4.4151 H   0  0  0  0  0  0
  -18.6737  -25.3120    4.5080 H   0  0  0  0  0  0
  -18.8383  -23.6080    4.1680 H   0  0  0  0  0  0
  -21.1410  -24.8611   10.6347 H   0  0  0  0  0  0
  1 17  1  0  0  0
  1 18  2  0  0  0
  1 33  1  0  0  0
  2 19  2  0  0  0
  2 20  1  0  0  0
  2 34  1  0  0  0
  3 20  1  0  0  0
  3 21  1  0  0  0
  3 35  1  0  0  0
  3 36  1  0  0  0
  4 21  2  0  0  0
  4 22  1  0  0  0
  4 37  1  0  0  0
  5 23  1  0  0  0
  5 24  1  0  0  0
  5 38  1  0  0  0
  5 39  1  0  0  0
  6 24  1  0  0  0
  6 25  1  0  0  0
  6 40  1  0  0  0
  6 41  1  0  0  0
  7 26  1  0  0  0
  7 28  1  0  0  0
  7 42  1  0  0  0
  7 43  1  0  0  0
  8 23  1  0  0  0
  8 29  2  0  0  0
  8 44  1  0  0  0
  9 10  1  0  0  0
  9 45  1  0  0  0
  9 46  1  0  0  0
 10 11  1  0  0  0
 10 30  2  0  0  0
 11 12  1  0  0  0
 11 47  1  0  0  0
 12 13  2  0  0  0
 13 14  1  0  0  0
 13 30  1  0  0  0
 14 15  2  0  0  0
 14 18  1  0  0  0
 15 16  1  0  0  0
 15 48  1  0  0  0
 16 17  2  0  0  0
 16 20  1  0  0  0
 17 19  1  0  0  0
 18 49  1  0  0  0
 19 50  1  0  0  0
 21 29  1  0  0  0
 22 23  2  0  0  0
 22 51  1  0  0  0
 24 28  1  0  0  0
 25 26  1  0  0  0
 25 52  1  0  0  0
 25 53  1  0  0  0
 26 27  1  0  0  0
 27 54  1  0  0  0
 27 55  1  0  0  0
 27 56  1  0  0  0
 28 57  1  0  0  0
 28 58  1  0  0  0
 29 59  1  0  0  0
 30 31  1  0  0  0
 31 32  3  0  0  0
M  END
> <s_m_entry_id>
99

> <s_m_entry_name>
pdb6qr8.ent.1_A_ligand

> <s_pdb_PDB_TITLE>
CRYSTAL STRUCTURE OF TRMD, A TRNA-(N1G37) METHYLTRANSFERASE, FROM MYCOBACTERIUM ABSCESSUS IN COMPLEX WITH INHIBITOR

> <s_pdb_PDB_ID>
6QR8

> <r_pdb_PDB_CRYST1_a>
74.85

> <r_pdb_PDB_CRYST1_b>
76.329

> <r_pdb_PDB_CRYST1_c>
86.381

> <r_pdb_PDB_CRYST1_alpha>
90

> <r_pdb_PDB_CRYST1_beta>
90

> <r_pdb_PDB_CRYST1_gamma>
90

> <s_pdb_PDB_CRYST1_Space_Group>
P 21 21 21

> <i_pdb_PDB_CRYST1_z>
8

> <s_pdb_PDB_CLASSIFICATION>
TRANSFERASE

> <s_pdb_PDB_DEPOSITION_DATE>
19-FEB-19

> <s_pdb_PDB_format_version>
3.30

> <r_pdb_PDB_R>
0.186

> <r_pdb_PDB_Rfree>
0.229

> <r_pdb_PDB_RESOLUTION>
2.15

> <s_pdb_PDB_EXPDTA>
X-RAY DIFFRACTION

> <r_pdb_PDB_EXPDTA_TEMPERATURE>
100

> <s_pdb_PDB_REMARK_350_Biomolecule_1_Transform_1_Chains>
A, B

> <s_pdb_PDB_REMARK_350_Biomolecule_1_Transform_1_Matrix_1>
1.000000 0.000000 0.000000   0.000000;0.000000 1.000000 0.000000   0.000000;0.000000 0.000000 1.000000   0.000000

> <s_m_Source_Path>
C:\Users\maila\Downloads\other-all-PDB

> <s_m_Source_File>
pdb6qr8.ent.gz

> <i_m_Source_File_Index>
1

> <s_ppw_entry_id_backup>
83

> <b_ppw_prepared>
1

> <s_ppw_prepared_with_version>
2021-1

> <b_ppw_assigned_bond_orders>
1

> <b_ppw_added_hydrogens>
1

> <b_ppw_treated_metals>
1

> <b_ppw_created_disulfur>
1

> <s_m_Chain_Name>
A

> <s_ppw_group_name_backup>
6QR8_split_by_chain

> <s_m_subgroup_title>
6QR8_split_by_chain->6QR8_chainA - preprocessed_split_by_structure

> <s_m_subgroupid>
6QR8_split_by_chain->6QR8_chainA - preprocessed_split_by_structure

> <b_m_subgroup_collapsed>
0

$$$$
