6QR9 - preprocessed_chainA_ligand
                    3D
 Schrodinger Suite 2021-1.
 55 59  0  0  1  0            999 V2000
  -24.6360  -18.6370   11.3560 C   0  0  0  0  0  0
  -25.7000  -22.0970   10.5280 C   0  0  0  0  0  0
  -23.6410  -23.4040   10.8720 C   0  0  0  0  0  0
  -23.3130  -23.5100    8.3380 C   0  0  0  0  0  0
  -20.3040  -24.5130    6.1450 C   0  0  0  0  0  0
  -20.5530  -26.7330    6.5450 C   0  0  0  0  0  0
  -18.9820  -25.9090    5.0280 C   0  0  0  0  0  0
  -21.4840  -24.0960    9.8120 C   0  0  0  0  0  0
  -18.0520  -16.6830   12.9630 N   0  0  0  0  0  0
  -19.0060  -17.7040   12.7020 C   0  0  0  0  0  0
  -18.7560  -19.0310   12.6600 N   0  0  0  0  0  0
  -19.9130  -19.6700   12.3850 N   0  0  0  0  0  0
  -20.9100  -18.7970   12.2780 C   0  0  0  0  0  0
  -22.3380  -19.1920   11.9040 C   0  0  0  0  0  0
  -22.5930  -20.5400   11.5850 C   0  0  0  0  0  0
  -23.9020  -20.9470   11.1910 C   0  0  0  0  0  0
  -24.9080  -20.0130   11.0770 C   0  0  0  0  0  0
  -23.3480  -18.2320   11.7600 C   0  0  0  0  0  0
  -26.0720  -20.7600   10.6530 C   0  0  0  0  0  0
  -24.4060  -22.1790   10.8410 N   0  0  0  0  0  0
  -22.7930  -23.6540    9.6300 C   0  0  0  0  0  0
  -22.4990  -23.7810    7.2210 C   0  0  0  0  0  0
  -21.1830  -24.2170    7.3910 C   0  0  0  0  0  0
  -19.7470  -25.6720    6.1530 N   0  0  0  0  0  0
  -20.3690  -28.0360    5.7910 C   0  0  0  0  0  0
  -20.2960  -27.8940    4.4240 O   0  0  0  0  0  0
  -19.7180  -26.7250    3.9810 C   0  0  0  0  0  0
  -20.6770  -24.3650    8.7020 C   0  0  0  0  0  0
  -20.3730  -17.5370   12.4500 C   0  0  0  0  0  0
  -21.0900  -16.1930   12.4120 C   0  0  0  0  0  0
  -21.6120  -15.1780   12.3860 N   0  0  0  0  0  0
  -25.4201  -17.9008   11.2576 H   0  0  0  0  0  0
  -26.4284  -22.8340   10.2236 H   0  0  0  0  0  0
  -24.3152  -24.2468   11.0243 H   0  0  0  0  0  0
  -22.9998  -23.4069   11.7534 H   0  0  0  0  0  0
  -24.3358  -23.1919    8.1999 H   0  0  0  0  0  0
  -19.5368  -23.7442    6.0534 H   0  0  0  0  0  0
  -20.9082  -24.4089    5.2438 H   0  0  0  0  0  0
  -21.5984  -26.4298    6.4882 H   0  0  0  0  0  0
  -20.4164  -26.9128    7.6113 H   0  0  0  0  0  0
  -18.0674  -26.4280    5.3146 H   0  0  0  0  0  0
  -18.6717  -24.9584    4.5941 H   0  0  0  0  0  0
  -21.0933  -24.2306   10.8098 H   0  0  0  0  0  0
  -18.3387  -15.7146   12.9729 H   0  0  0  0  0  0
  -17.0875  -16.9260   13.1386 H   0  0  0  0  0  0
  -17.8201  -19.3740   12.8229 H   0  0  0  0  0  0
  -21.7966  -21.2675   11.6385 H   0  0  0  0  0  0
  -23.1464  -17.1892   11.9557 H   0  0  0  0  0  0
  -27.0875  -20.4599   10.4405 H   0  0  0  0  0  0
  -22.8912  -23.6521    6.2230 H   0  0  0  0  0  0
  -21.1837  -28.7158    6.0405 H   0  0  0  0  0  0
  -19.4705  -28.5375    6.1505 H   0  0  0  0  0  0
  -19.0400  -26.9487    3.1574 H   0  0  0  0  0  0
  -20.4795  -26.1032    3.5104 H   0  0  0  0  0  0
  -19.6564  -24.6893    8.8422 H   0  0  0  0  0  0
  1 17  1  0  0  0
  1 18  2  0  0  0
  1 32  1  0  0  0
  2 19  2  0  0  0
  2 20  1  0  0  0
  2 33  1  0  0  0
  3 20  1  0  0  0
  3 21  1  0  0  0
  3 34  1  0  0  0
  3 35  1  0  0  0
  4 21  2  0  0  0
  4 22  1  0  0  0
  4 36  1  0  0  0
  5 23  1  0  0  0
  5 24  1  0  0  0
  5 37  1  0  0  0
  5 38  1  0  0  0
  6 24  1  0  0  0
  6 25  1  0  0  0
  6 39  1  0  0  0
  6 40  1  0  0  0
  7 24  1  0  0  0
  7 27  1  0  0  0
  7 41  1  0  0  0
  7 42  1  0  0  0
  8 21  1  0  0  0
  8 28  2  0  0  0
  8 43  1  0  0  0
  9 10  1  0  0  0
  9 44  1  0  0  0
  9 45  1  0  0  0
 10 11  1  0  0  0
 10 29  2  0  0  0
 11 12  1  0  0  0
 11 46  1  0  0  0
 12 13  2  0  0  0
 13 14  1  0  0  0
 13 29  1  0  0  0
 14 15  2  0  0  0
 14 18  1  0  0  0
 15 16  1  0  0  0
 15 47  1  0  0  0
 16 17  2  0  0  0
 16 20  1  0  0  0
 17 19  1  0  0  0
 18 48  1  0  0  0
 19 49  1  0  0  0
 22 23  2  0  0  0
 22 50  1  0  0  0
 23 28  1  0  0  0
 25 26  1  0  0  0
 25 51  1  0  0  0
 25 52  1  0  0  0
 26 27  1  0  0  0
 27 53  1  0  0  0
 27 54  1  0  0  0
 28 55  1  0  0  0
 29 30  1  0  0  0
 30 31  3  0  0  0
M  END
> <s_m_entry_id>
104

> <s_m_entry_name>
pdb6qr9.ent.1_A_ligand

> <s_pdb_PDB_TITLE>
CRYSTAL STRUCTURE OF TRMD, A TRNA-(N1G37) METHYLTRANSFERASE, FROM MYCOBACTERIUM ABSCESSUS IN COMPLEX WITH INHIBITOR

> <s_pdb_PDB_ID>
6QR9

> <r_pdb_PDB_CRYST1_a>
75.679

> <r_pdb_PDB_CRYST1_b>
77.179

> <r_pdb_PDB_CRYST1_c>
87.556

> <r_pdb_PDB_CRYST1_alpha>
90

> <r_pdb_PDB_CRYST1_beta>
90

> <r_pdb_PDB_CRYST1_gamma>
90

> <s_pdb_PDB_CRYST1_Space_Group>
P 21 21 21

> <i_pdb_PDB_CRYST1_z>
8

> <s_pdb_PDB_CLASSIFICATION>
TRANSFERASE

> <s_pdb_PDB_DEPOSITION_DATE>
19-FEB-19

> <s_pdb_PDB_format_version>
3.30

> <r_pdb_PDB_R>
0.182

> <r_pdb_PDB_Rfree>
0.246

> <r_pdb_PDB_RESOLUTION>
2.42

> <s_pdb_PDB_EXPDTA>
X-RAY DIFFRACTION

> <r_pdb_PDB_EXPDTA_TEMPERATURE>
100

> <s_pdb_PDB_REMARK_350_Biomolecule_1_Transform_1_Chains>
A, B

> <s_pdb_PDB_REMARK_350_Biomolecule_1_Transform_1_Matrix_1>
1.000000 0.000000 0.000000   0.000000;0.000000 1.000000 0.000000   0.000000;0.000000 0.000000 1.000000   0.000000

> <s_m_Source_Path>
C:\Users\maila\Downloads\other-all-PDB

> <s_m_Source_File>
pdb6qr9.ent.gz

> <i_m_Source_File_Index>
1

> <s_ppw_entry_id_backup>
5

> <b_ppw_prepared>
1

> <s_ppw_prepared_with_version>
2021-1

> <b_ppw_assigned_bond_orders>
1

> <b_ppw_added_hydrogens>
1

> <b_ppw_treated_metals>
1

> <b_ppw_created_disulfur>
1

> <s_m_Chain_Name>
A

> <s_m_subgroup_title>
6QR9 - preprocessed_split_by_chain->6QR9 - preprocessed_chainA_split_by_structure

> <s_m_subgroupid>
6QR9 - preprocessed_split_by_chain->6QR9 - preprocessed_chainA_split_by_structure

> <b_m_subgroup_collapsed>
0

$$$$
