6QRA - preprocessed_chainA_ligand
                    3D
 Schrodinger Suite 2021-1.
 56 60  0  0  1  0            999 V2000
  -24.0860  -19.2050   11.7420 C   0  0  0  0  0  0
  -24.7170  -22.8140   11.1590 C   0  0  0  0  0  0
  -22.5470  -23.9280   11.5490 C   0  0  0  0  0  0
  -21.8500  -23.4820    9.0280 C   0  0  0  0  0  0
  -19.8150  -25.7100    6.6400 C   0  0  0  0  0  0
  -18.2860  -25.4980    5.0840 C   0  0  0  0  0  0
  -16.0100  -24.8630    5.8000 C   0  0  0  0  0  0
  -17.8240  -24.9670    7.4470 C   0  0  0  0  0  0
  -21.2370  -25.5350   10.2270 C   0  0  0  0  0  0
  -17.7710  -16.4380   12.7690 N   0  0  0  0  0  0
  -18.6280  -17.5920   12.7270 C   0  0  0  0  0  0
  -18.2170  -18.8920   12.9540 N   0  0  0  0  0  0
  -19.3250  -19.7310   12.8330 N   0  0  0  0  0  0
  -20.3980  -18.9910   12.5720 C   0  0  0  0  0  0
  -21.7350  -19.5320   12.2780 C   0  0  0  0  0  0
  -21.8150  -20.9170   12.0660 C   0  0  0  0  0  0
  -23.0830  -21.4520   11.7040 C   0  0  0  0  0  0
  -24.1820  -20.6180   11.5510 C   0  0  0  0  0  0
  -22.8370  -18.6540   12.1010 C   0  0  0  0  0  0
  -25.2270  -21.4670   11.1890 C   0  0  0  0  0  0
  -23.4630  -22.7680   11.4530 N   0  0  0  0  0  0
  -21.8530  -24.3280   10.2450 C   0  0  0  0  0  0
  -21.2150  -23.9090    7.9060 C   0  0  0  0  0  0
  -20.5470  -25.1870    7.8950 C   0  0  0  0  0  0
  -18.7720  -25.0850    6.3530 N   0  0  0  0  0  0
  -16.7690  -25.6730    4.9140 C   0  0  0  0  0  0
  -16.3520  -25.2100    7.1400 C   0  0  0  0  0  0
  -20.5730  -25.9880    9.0480 C   0  0  0  0  0  0
  -20.0130  -17.6270   12.4440 C   0  0  0  0  0  0
  -24.9584  -18.5819   11.6114 H   0  0  0  0  0  0
  -25.3753  -23.6354   10.9174 H   0  0  0  0  0  0
  -23.0917  -24.7852   11.9447 H   0  0  0  0  0  0
  -21.7939  -23.7300   12.3117 H   0  0  0  0  0  0
  -22.3527  -22.5262    9.0336 H   0  0  0  0  0  0
  -20.4957  -25.6867    5.7890 H   0  0  0  0  0  0
  -19.5782  -26.7655    6.7737 H   0  0  0  0  0  0
  -18.6542  -24.8128    4.3204 H   0  0  0  0  0  0
  -18.7868  -26.4214    4.7931 H   0  0  0  0  0  0
  -16.2466  -23.8135    5.6251 H   0  0  0  0  0  0
  -14.9475  -25.0447    5.6379 H   0  0  0  0  0  0
  -18.1328  -25.6242    8.2599 H   0  0  0  0  0  0
  -17.9351  -23.9875    7.9121 H   0  0  0  0  0  0
  -21.2470  -26.1595   11.1080 H   0  0  0  0  0  0
  -18.1516  -15.5196   12.5907 H   0  0  0  0  0  0
  -16.7885  -16.5459   12.9768 H   0  0  0  0  0  0
  -17.2484  -19.0859   13.1646 H   0  0  0  0  0  0
  -20.9347  -21.5324   12.1792 H   0  0  0  0  0  0
  -22.7358  -17.5871   12.2348 H   0  0  0  0  0  0
  -26.2631  -21.2765   10.9512 H   0  0  0  0  0  0
  -21.2098  -23.2912    7.0202 H   0  0  0  0  0  0
  -16.4911  -25.4429    3.8854 H   0  0  0  0  0  0
  -16.5062  -26.7199    5.0657 H   0  0  0  0  0  0
  -15.7377  -24.6335    7.8316 H   0  0  0  0  0  0
  -16.1139  -26.2592    7.3146 H   0  0  0  0  0  0
  -20.0865  -26.9522    9.0389 H   0  0  0  0  0  0
  -20.5367  -16.7156   12.1959 H   0  0  0  0  0  0
  1 18  1  0  0  0
  1 19  2  0  0  0
  1 30  1  0  0  0
  2 20  2  0  0  0
  2 21  1  0  0  0
  2 31  1  0  0  0
  3 21  1  0  0  0
  3 22  1  0  0  0
  3 32  1  0  0  0
  3 33  1  0  0  0
  4 22  2  0  0  0
  4 23  1  0  0  0
  4 34  1  0  0  0
  5 24  1  0  0  0
  5 25  1  0  0  0
  5 35  1  0  0  0
  5 36  1  0  0  0
  6 25  1  0  0  0
  6 26  1  0  0  0
  6 37  1  0  0  0
  6 38  1  0  0  0
  7 26  1  0  0  0
  7 27  1  0  0  0
  7 39  1  0  0  0
  7 40  1  0  0  0
  8 25  1  0  0  0
  8 27  1  0  0  0
  8 41  1  0  0  0
  8 42  1  0  0  0
  9 22  1  0  0  0
  9 28  2  0  0  0
  9 43  1  0  0  0
 10 11  1  0  0  0
 10 44  1  0  0  0
 10 45  1  0  0  0
 11 12  1  0  0  0
 11 29  2  0  0  0
 12 13  1  0  0  0
 12 46  1  0  0  0
 13 14  2  0  0  0
 14 15  1  0  0  0
 14 29  1  0  0  0
 15 16  2  0  0  0
 15 19  1  0  0  0
 16 17  1  0  0  0
 16 47  1  0  0  0
 17 18  2  0  0  0
 17 21  1  0  0  0
 18 20  1  0  0  0
 19 48  1  0  0  0
 20 49  1  0  0  0
 23 24  2  0  0  0
 23 50  1  0  0  0
 24 28  1  0  0  0
 26 51  1  0  0  0
 26 52  1  0  0  0
 27 53  1  0  0  0
 27 54  1  0  0  0
 28 55  1  0  0  0
 29 56  1  0  0  0
M  END
> <s_m_entry_id>
110

> <s_m_entry_name>
pdb6qra.ent.1_A_ligand

> <s_pdb_PDB_TITLE>
CRYSTAL STRUCTURE OF TRMD, A TRNA-(N1G37) METHYLTRANSFERASE, FROM MYCOBACTERIUM ABSCESSUS IN COMPLEX WITH INHIBITOR

> <s_pdb_PDB_ID>
6QRA

> <r_pdb_PDB_CRYST1_a>
74.134

> <r_pdb_PDB_CRYST1_b>
79.218

> <r_pdb_PDB_CRYST1_c>
85.635

> <r_pdb_PDB_CRYST1_alpha>
90

> <r_pdb_PDB_CRYST1_beta>
90

> <r_pdb_PDB_CRYST1_gamma>
90

> <s_pdb_PDB_CRYST1_Space_Group>
P 21 21 21

> <i_pdb_PDB_CRYST1_z>
8

> <s_pdb_PDB_CLASSIFICATION>
TRANSFERASE

> <s_pdb_PDB_DEPOSITION_DATE>
19-FEB-19

> <s_pdb_PDB_format_version>
3.30

> <r_pdb_PDB_R>
0.184

> <r_pdb_PDB_Rfree>
0.213

> <r_pdb_PDB_RESOLUTION>
1.71

> <s_pdb_PDB_EXPDTA>
X-RAY DIFFRACTION

> <r_pdb_PDB_EXPDTA_TEMPERATURE>
100

> <s_pdb_PDB_REMARK_350_Biomolecule_1_Transform_1_Chains>
A, B

> <s_pdb_PDB_REMARK_350_Biomolecule_1_Transform_1_Matrix_1>
1.000000 0.000000 0.000000   0.000000;0.000000 1.000000 0.000000   0.000000;0.000000 0.000000 1.000000   0.000000

> <s_m_Source_Path>
C:\Users\maila\Downloads\other-all-PDB

> <s_m_Source_File>
pdb6qra.ent.gz

> <i_m_Source_File_Index>
1

> <s_ppw_entry_id_backup>
6

> <b_ppw_prepared>
1

> <s_ppw_prepared_with_version>
2021-1

> <b_ppw_assigned_bond_orders>
1

> <b_ppw_added_hydrogens>
1

> <b_ppw_treated_metals>
1

> <b_ppw_created_disulfur>
1

> <s_m_Chain_Name>
A

> <s_m_subgroup_title>
6QRA - preprocessed_split_by_chain->6QRA - preprocessed_chainA_split_by_structure

> <s_m_subgroupid>
6QRA - preprocessed_split_by_chain->6QRA - preprocessed_chainA_split_by_structure

> <b_m_subgroup_collapsed>
0

$$$$
