6QRB_chainA - preprocessed_ligand
                    3D
 Schrodinger Suite 2021-1.
 57 61  0  0  1  0            999 V2000
  -24.5110  -19.1960   11.2270 C   0  0  0  0  0  0
  -25.3100  -22.7590   10.5990 C   0  0  0  0  0  0
  -23.2730  -23.9980   11.1540 C   0  0  0  0  0  0
  -21.6210  -23.5930    9.3260 C   0  0  0  0  0  0
  -22.4840  -22.8640    6.7080 C   0  0  0  0  0  0
  -23.7190  -22.3320    7.2100 C   0  0  0  0  0  0
  -24.1940  -21.0800    6.7610 C   0  0  0  0  0  0
  -22.2980  -20.8740    5.3100 C   0  0  0  0  0  0
  -20.3900  -25.3400    8.3770 C   0  0  0  0  0  0
  -21.9240  -25.8040   10.2380 C   0  0  0  0  0  0
  -17.9860  -16.9160   12.9980 N   0  0  0  0  0  0
  -18.8940  -17.9980   12.7530 C   0  0  0  0  0  0
  -18.6040  -19.2530   12.6930 N   0  0  0  0  0  0
  -19.8280  -19.9710   12.4270 N   0  0  0  0  0  0
  -20.8080  -19.1630   12.3620 C   0  0  0  0  0  0
  -22.1860  -19.6540   11.9720 C   0  0  0  0  0  0
  -22.3420  -21.0020   11.7400 C   0  0  0  0  0  0
  -23.6190  -21.5090   11.2710 C   0  0  0  0  0  0
  -24.6900  -20.5900   11.0300 C   0  0  0  0  0  0
  -23.2900  -18.6940   11.6800 C   0  0  0  0  0  0
  -25.7530  -21.3730   10.5880 C   0  0  0  0  0  0
  -24.0500  -22.7890   10.9840 N   0  0  0  0  0  0
  -22.6030  -24.5760    9.8910 C   0  0  1  0  0  0
  -21.0480  -24.0990    8.1260 N   0  0  1  0  0  0
  -21.9360  -24.2300    7.2070 C   0  0  0  0  0  0
  -23.4760  -20.3650    5.8050 C   0  0  0  0  0  0
  -21.7960  -22.1700    5.7890 C   0  0  0  0  0  0
  -21.2550  -26.3500    9.1160 C   0  0  0  0  0  0
  -20.3030  -17.8510   12.5070 C   0  0  0  0  0  0
  -20.9530  -16.5350   12.5200 C   0  0  0  0  0  0
  -21.3840  -15.4320   12.5490 N   0  0  0  0  0  0
  -25.3236  -18.5135   11.0261 H   0  0  0  0  0  0
  -25.9933  -23.5466   10.3175 H   0  0  0  0  0  0
  -23.8982  -24.7649   11.6113 H   0  0  0  0  0  0
  -22.5141  -23.8321   11.9187 H   0  0  0  0  0  0
  -20.8321  -23.4081   10.0551 H   0  0  0  0  0  0
  -22.1292  -22.6517    9.1168 H   0  0  0  0  0  0
  -24.2918  -22.8898    7.9360 H   0  0  0  0  0  0
  -25.1137  -20.6771    7.1588 H   0  0  0  0  0  0
  -21.7404  -20.3214    4.5683 H   0  0  0  0  0  0
  -19.4794  -25.1576    8.9476 H   0  0  0  0  0  0
  -20.0579  -25.7708    7.4324 H   0  0  0  0  0  0
  -22.6489  -26.5255   10.6148 H   0  0  0  0  0  0
  -21.2022  -25.6080   11.0309 H   0  0  0  0  0  0
  -18.3276  -15.9659   13.0230 H   0  0  0  0  0  0
  -17.0047  -17.1038   13.1456 H   0  0  0  0  0  0
  -17.6503  -19.5578   12.8257 H   0  0  0  0  0  0
  -21.5163  -21.6778   11.9069 H   0  0  0  0  0  0
  -23.1593  -17.6302   11.8125 H   0  0  0  0  0  0
  -26.7560  -21.1292   10.2703 H   0  0  0  0  0  0
  -23.3682  -24.7880    9.1442 H   0  0  0  0  0  0
  -21.5097  -24.7781    6.3668 H   0  0  0  0  0  0
  -22.7605  -24.8354    7.5836 H   0  0  0  0  0  0
  -23.8445  -19.4126    5.4537 H   0  0  0  0  0  0
  -20.8692  -22.5629    5.3979 H   0  0  0  0  0  0
  -20.6377  -27.1895    9.4360 H   0  0  0  0  0  0
  -21.9876  -26.7712    8.4276 H   0  0  0  0  0  0
  1 19  2  0  0  0
  1 20  1  0  0  0
  1 32  1  0  0  0
  2 21  2  0  0  0
  2 22  1  0  0  0
  2 33  1  0  0  0
  3 22  1  0  0  0
  3 23  1  0  0  0
  3 34  1  0  0  0
  3 35  1  0  0  0
  4 23  1  0  0  0
  4 24  1  0  0  0
  4 36  1  0  0  0
  4 37  1  0  0  0
  5  6  2  0  0  0
  5 25  1  0  0  0
  5 27  1  0  0  0
  6  7  1  0  0  0
  6 38  1  0  0  0
  7 26  2  0  0  0
  7 39  1  0  0  0
  8 26  1  0  0  0
  8 27  2  0  0  0
  8 40  1  0  0  0
  9 24  1  0  0  0
  9 28  1  0  0  0
  9 41  1  0  0  0
  9 42  1  0  0  0
 10 23  1  0  0  0
 10 28  1  0  0  0
 10 43  1  0  0  0
 10 44  1  0  0  0
 11 12  1  0  0  0
 11 45  1  0  0  0
 11 46  1  0  0  0
 12 13  1  0  0  0
 12 29  2  0  0  0
 13 14  1  0  0  0
 13 47  1  0  0  0
 14 15  2  0  0  0
 15 16  1  0  0  0
 15 29  1  0  0  0
 16 17  1  0  0  0
 16 20  2  0  0  0
 17 18  2  0  0  0
 17 48  1  0  0  0
 18 19  1  0  0  0
 18 22  1  0  0  0
 19 21  1  0  0  0
 20 49  1  0  0  0
 21 50  1  0  0  0
 23 51  1  0  0  0
 24 25  1  0  0  0
 25 52  1  0  0  0
 25 53  1  0  0  0
 26 54  1  0  0  0
 27 55  1  0  0  0
 28 56  1  0  0  0
 28 57  1  0  0  0
 29 30  1  0  0  0
 30 31  3  0  0  0
M  END
> <s_m_entry_id>
115

> <s_m_entry_name>
pdb6qrb.ent.1_A_ligand

> <s_pdb_PDB_TITLE>
CRYSTAL STRUCTURE OF TRMD, A TRNA-(N1G37) METHYLTRANSFERASE, FROM MYCOBACTERIUM ABSCESSUS IN COMPLEX WITH INHIBITOR

> <s_pdb_PDB_ID>
6QRB

> <r_pdb_PDB_CRYST1_a>
75.461

> <r_pdb_PDB_CRYST1_b>
77.752

> <r_pdb_PDB_CRYST1_c>
86.78

> <r_pdb_PDB_CRYST1_alpha>
90

> <r_pdb_PDB_CRYST1_beta>
90

> <r_pdb_PDB_CRYST1_gamma>
90

> <s_pdb_PDB_CRYST1_Space_Group>
P 21 21 21

> <i_pdb_PDB_CRYST1_z>
8

> <s_pdb_PDB_CLASSIFICATION>
TRANSFERASE

> <s_pdb_PDB_DEPOSITION_DATE>
19-FEB-19

> <s_pdb_PDB_format_version>
3.30

> <r_pdb_PDB_R>
0.191

> <r_pdb_PDB_Rfree>
0.21

> <r_pdb_PDB_RESOLUTION>
1.66

> <s_pdb_PDB_EXPDTA>
X-RAY DIFFRACTION

> <r_pdb_PDB_EXPDTA_TEMPERATURE>
100

> <s_pdb_PDB_REMARK_350_Biomolecule_1_Transform_1_Chains>
A, B

> <s_pdb_PDB_REMARK_350_Biomolecule_1_Transform_1_Matrix_1>
1.000000 0.000000 0.000000   0.000000;0.000000 1.000000 0.000000   0.000000;0.000000 0.000000 1.000000   0.000000

> <s_m_Source_Path>
C:\Users\maila\Downloads\other-all-PDB

> <s_m_Source_File>
pdb6qrb.ent.gz

> <i_m_Source_File_Index>
1

> <s_ppw_entry_id_backup>
112

> <b_ppw_prepared>
1

> <s_ppw_prepared_with_version>
2021-1

> <b_ppw_assigned_bond_orders>
1

> <b_ppw_added_hydrogens>
1

> <b_ppw_treated_metals>
1

> <b_ppw_created_disulfur>
1

> <s_m_Chain_Name>
A

> <s_ppw_group_name_backup>
6QRB_split_by_chain

> <s_m_subgroup_title>
6QRB_split_by_chain->6QRB_chainA - preprocessed_split_by_structure

> <s_m_subgroupid>
6QRB_split_by_chain->6QRB_chainA - preprocessed_split_by_structure

> <b_m_subgroup_collapsed>
0

$$$$
