6QRF - preprocessed_chainA_ligand1
                    3D
 Schrodinger Suite 2021-1.
 25 26  0  0  1  0            999 V2000
  -23.0480   20.3940  -11.1730 C   0  0  0  0  0  0
  -23.3020   21.1520   -8.5180 C   0  0  0  0  0  0
  -23.8590   19.6620  -10.3140 C   0  0  0  0  0  0
  -20.2730   20.1820  -12.9720 O   0  0  0  0  0  0
  -20.6830   19.0440  -12.8730 C   0  0  0  0  0  0
  -19.7220   17.8520  -12.8950 C   0  0  0  0  0  0
  -20.0910   16.5300  -12.9240 C   0  0  0  0  0  0
  -18.9710   15.8070  -12.9280 N   0  0  0  0  0  0
  -17.8790   16.6140  -12.8820 N   0  0  0  0  0  0
  -18.3300   17.8970  -12.8770 C   0  0  0  0  0  0
  -22.0700   18.7890  -12.7090 O   0  0  0  0  0  0
  -22.8970   19.9700  -12.6340 C   0  0  0  0  0  0
  -22.3630   21.5080  -10.7050 C   0  0  0  0  0  0
  -22.4990   21.8830   -9.3780 C   0  0  0  0  0  0
  -23.9930   20.0390   -8.9850 C   0  0  0  0  0  0
  -23.3924   21.4460   -7.4827 H   0  0  0  0  0  0
  -24.3889   18.7949  -10.6796 H   0  0  0  0  0  0
  -21.1370   16.2615  -12.9386 H   0  0  0  0  0  0
  -19.0209   14.7988  -12.9622 H   0  0  0  0  0  0
  -17.8206   18.8492  -12.8626 H   0  0  0  0  0  0
  -22.4305   20.7765  -13.1997 H   0  0  0  0  0  0
  -23.8797   19.7523  -13.0523 H   0  0  0  0  0  0
  -21.7311   22.0736  -11.3737 H   0  0  0  0  0  0
  -21.9723   22.7536   -9.0160 H   0  0  0  0  0  0
  -24.6268   19.4767   -8.3153 H   0  0  0  0  0  0
  1  3  1  0  0  0
  1 12  1  0  0  0
  1 13  2  0  0  0
  2 14  2  0  0  0
  2 15  1  0  0  0
  2 16  1  0  0  0
  3 15  2  0  0  0
  3 17  1  0  0  0
  4  5  2  0  0  0
  5  6  1  0  0  0
  5 11  1  0  0  0
  6  7  2  0  0  0
  6 10  1  0  0  0
  7  8  1  0  0  0
  7 18  1  0  0  0
  8  9  1  0  0  0
  8 19  1  0  0  0
  9 10  2  0  0  0
 10 20  1  0  0  0
 11 12  1  0  0  0
 12 21  1  0  0  0
 12 22  1  0  0  0
 13 14  1  0  0  0
 13 23  1  0  0  0
 14 24  1  0  0  0
 15 25  1  0  0  0
M  END
> <s_m_entry_id>
401

> <s_m_entry_name>
pdb6qrf.ent.1_A_ligand1

> <s_pdb_PDB_TITLE>
CRYSTAL STRUCTURE OF TRMD, A TRNA-(N1G37) METHYLTRANSFERASE, FROM MYCOBACTERIUM ABSCESSUS IN COMPLEX WITH INHIBITOR

> <s_pdb_PDB_ID>
6QRF

> <r_pdb_PDB_CRYST1_a>
73.82

> <r_pdb_PDB_CRYST1_b>
78.61

> <r_pdb_PDB_CRYST1_c>
84.83

> <r_pdb_PDB_CRYST1_alpha>
90

> <r_pdb_PDB_CRYST1_beta>
90

> <r_pdb_PDB_CRYST1_gamma>
90

> <s_pdb_PDB_CRYST1_Space_Group>
P 21 21 21

> <i_pdb_PDB_CRYST1_z>
8

> <s_pdb_PDB_CLASSIFICATION>
TRANSFERASE

> <s_pdb_PDB_DEPOSITION_DATE>
19-FEB-19

> <s_pdb_PDB_format_version>
3.30

> <r_pdb_PDB_R>
0.186

> <r_pdb_PDB_Rfree>
0.217

> <r_pdb_PDB_RESOLUTION>
1.86

> <s_pdb_PDB_EXPDTA>
X-RAY DIFFRACTION

> <r_pdb_PDB_EXPDTA_TEMPERATURE>
100

> <s_pdb_PDB_REMARK_350_Biomolecule_1_Transform_1_Chains>
A, B

> <s_pdb_PDB_REMARK_350_Biomolecule_1_Transform_1_Matrix_1>
1.000000 0.000000 0.000000   0.000000;0.000000 1.000000 0.000000   0.000000;0.000000 0.000000 1.000000   0.000000

> <s_m_Source_Path>
C:\Users\maila\AppData\Local\Temp\7zE0C379B6C

> <s_m_Source_File>
pdb6qrf.ent.gz

> <i_m_Source_File_Index>
1

> <s_ppw_entry_id_backup>
55

> <b_ppw_prepared>
1

> <s_ppw_prepared_with_version>
2021-1

> <b_ppw_assigned_bond_orders>
1

> <b_ppw_added_hydrogens>
1

> <b_ppw_treated_metals>
1

> <b_ppw_created_disulfur>
1

> <s_m_Chain_Name>
A

> <s_m_subgroup_title>
6QRF - preprocessed_split_by_chain->6QRF - preprocessed_chainA_split_by_structure

> <s_m_subgroupid>
6QRF - preprocessed_split_by_chain->6QRF - preprocessed_chainA_split_by_structure

> <b_m_subgroup_collapsed>
0

$$$$
