6w15 - preprocessed_ligand
                    3D
 Schrodinger Suite 2021-1.
 45 47  0  0  1  0            999 V2000
   14.6200   -6.4010   -5.6230 N   0  0  0  0  0  0
   14.5160   -7.7250   -4.9840 C   0  0  1  0  0  0
   13.6460   -7.7420   -3.7210 C   0  0  0  0  0  0
   12.7130   -6.5450   -3.6250 C   0  0  0  0  0  0
   12.0090   -6.5870   -1.9520 S   0  0  0  0  0  0
   13.9350   -8.6740   -6.0410 C   0  0  0  0  0  0
   14.5910   -9.2150   -6.9050 O   0  0  0  0  0  0
   12.6470   -8.8390   -5.8850 O   0  5  0  0  0  0
   13.3390   -5.8830   -0.9420 C   0  0  0  0  0  0
   12.8100   -5.0910    0.2390 C   0  0  1  0  0  0
   11.8620   -4.0910   -0.1910 O   0  0  0  0  0  0
   12.0440   -5.9130    1.2650 C   0  0  1  0  0  0
   12.9180   -6.6020    2.1510 O   0  0  0  0  0  0
   11.2080   -4.8410    1.9720 C   0  0  1  0  0  0
   11.9420   -4.1290    2.9610 O   0  0  0  0  0  0
   10.8930   -3.8770    0.8230 C   0  0  2  0  0  0
    9.5660   -4.0270    0.2400 N   0  0  0  0  0  0
    9.2640   -4.3560   -1.0570 C   0  0  0  0  0  0
    7.9790   -4.3890   -1.3190 N   0  0  0  0  0  0
    7.3910   -4.0620   -0.1030 C   0  0  0  0  0  0
    6.0450   -3.9250    0.2930 C   0  0  0  0  0  0
    5.0050   -4.1160   -0.5260 N   0  0  0  0  0  0
    5.8010   -3.5790    1.5790 N   0  0  0  0  0  0
    6.8370   -3.3880    2.4020 C   0  0  0  0  0  0
    8.1440   -3.4920    2.1410 N   0  0  0  0  0  0
    8.3550   -3.8350    0.8630 C   0  0  0  0  0  0
   15.2051   -6.4677   -6.4436 H   0  0  0  0  0  0
   13.6997   -6.0829   -5.8913 H   0  0  0  0  0  0
   15.5177   -8.0657   -4.7222 H   0  0  0  0  0  0
   14.2872   -7.7728   -2.8401 H   0  0  0  0  0  0
   13.0599   -8.6607   -3.6975 H   0  0  0  0  0  0
   11.9126   -6.6500   -4.3574 H   0  0  0  0  0  0
   13.2869   -5.6273   -3.7534 H   0  0  0  0  0  0
   13.9616   -5.2375   -1.5615 H   0  0  0  0  0  0
   13.9833   -6.6848   -0.5813 H   0  0  0  0  0  0
   13.6450   -4.5961    0.7350 H   0  0  0  0  0  0
   11.3893   -6.6233    0.7600 H   0  0  0  0  0  0
   12.4010   -7.1081    2.7820 H   0  0  0  0  0  0
   10.2955   -5.2662    2.3898 H   0  0  0  0  0  0
   11.3739   -3.4727    3.3711 H   0  0  0  0  0  0
   10.9962   -2.8559    1.1901 H   0  0  0  0  0  0
   10.0571   -4.5607   -1.7609 H   0  0  0  0  0  0
    4.0627   -4.0021   -0.1807 H   0  0  0  0  0  0
    5.1619   -4.3741   -1.4898 H   0  0  0  0  0  0
    6.6649   -3.1101    3.4313 H   0  0  0  0  0  0
  1  2  1  0  0  0
  1 27  1  0  0  0
  1 28  1  0  0  0
  2  3  1  0  0  0
  2  6  1  0  0  0
  2 29  1  0  0  0
  3  4  1  0  0  0
  3 30  1  0  0  0
  3 31  1  0  0  0
  4  5  1  0  0  0
  4 32  1  0  0  0
  4 33  1  0  0  0
  5  9  1  0  0  0
  6  7  2  0  0  0
  6  8  1  0  0  0
  9 10  1  0  0  0
  9 34  1  0  0  0
  9 35  1  0  0  0
 10 11  1  0  0  0
 10 12  1  0  0  0
 10 36  1  0  0  0
 11 16  1  0  0  0
 12 13  1  0  0  0
 12 14  1  0  0  0
 12 37  1  0  0  0
 13 38  1  0  0  0
 14 15  1  0  0  0
 14 16  1  0  0  0
 14 39  1  0  0  0
 15 40  1  0  0  0
 16 17  1  0  0  0
 16 41  1  0  0  0
 17 18  1  0  0  0
 17 26  1  0  0  0
 18 19  2  0  0  0
 18 42  1  0  0  0
 19 20  1  0  0  0
 20 21  1  0  0  0
 20 26  2  0  0  0
 21 22  1  0  0  0
 21 23  2  0  0  0
 22 43  1  0  0  0
 22 44  1  0  0  0
 23 24  1  0  0  0
 24 25  2  0  0  0
 24 45  1  0  0  0
 25 26  1  0  0  0
M  CHG  1   8  -1
M  END
> <s_m_entry_id>
47

> <s_m_entry_name>
6w15_ligand

> <s_pdb_PDB_TITLE>
CRYSTAL STRUCTURE OF TRNA (GUANINE-N(1)-)-METHYLTRANSFERASE WITH BOUND SAH FROM MYCOBACTERIUM SMEGMATIS

> <s_pdb_PDB_ID>
6W15

> <r_pdb_PDB_CRYST1_a>
59.1

> <r_pdb_PDB_CRYST1_b>
59.1

> <r_pdb_PDB_CRYST1_c>
114.55

> <r_pdb_PDB_CRYST1_alpha>
90

> <r_pdb_PDB_CRYST1_beta>
90

> <r_pdb_PDB_CRYST1_gamma>
90

> <s_pdb_PDB_CRYST1_Space_Group>
P 43 21 2

> <i_pdb_PDB_CRYST1_z>
8

> <s_pdb_PDB_CLASSIFICATION>
TRANSFERASE

> <s_pdb_PDB_DEPOSITION_DATE>
03-MAR-20

> <s_pdb_PDB_format_version>
3.30

> <r_pdb_PDB_R>
0.203

> <r_pdb_PDB_Rfree>
0.263

> <r_pdb_PDB_RESOLUTION>
2

> <s_pdb_PDB_EXPDTA>
X-RAY DIFFRACTION

> <r_pdb_PDB_EXPDTA_TEMPERATURE>
100

> <r_pdb_PDB_EXPDTA_PH>
8.5

> <s_pdb_PDB_REMARK_350_Biomolecule_1_Transform_1_Chains>
A

> <s_pdb_PDB_REMARK_350_Biomolecule_1_Transform_1_Matrix_1>
1.000000 0.000000 0.000000   0.000000;0.000000 1.000000 0.000000   0.000000;0.000000 0.000000 1.000000   0.000000

> <s_pdb_PDB_REMARK_350_Biomolecule_1_Transform_1_Matrix_2>
0.000000 1.000000 0.000000   0.000000;1.000000 0.000000 0.000000   0.000000;0.000000 0.000000 -1.000000   0.000000

> <s_ppw_entry_id_backup>
45

> <b_ppw_prepared>
1

> <s_ppw_prepared_with_version>
2021-1

> <b_ppw_assigned_bond_orders>
1

> <b_ppw_added_hydrogens>
1

> <b_ppw_treated_metals>
1

> <b_ppw_created_disulfur>
1

> <s_m_subgroup_title>
6w15 - preprocessed_split_by_structure

> <s_m_subgroupid>
6w15 - preprocessed_split_by_structure

> <b_m_subgroup_collapsed>
0

$$$$
