7rez - preprocessed_chainA_ligand
                    3D
 Schrodinger Suite 2021-1.
 45 47  0  0  1  0            999 V2000
  -21.5000  -25.2310   10.4290 N   0  0  0  0  0  0
  -21.4720  -25.5970    9.0190 C   0  0  1  0  0  0
  -21.5040  -24.3610    8.1230 C   0  0  0  0  0  0
  -22.2670  -23.1560    8.6680 C   0  0  0  0  0  0
  -21.9540  -22.8350   10.4190 S   0  0  0  0  0  0
  -20.2450  -26.4340    8.7080 C   0  0  0  0  0  0
  -19.1730  -25.9030    8.4170 O   0  0  0  0  0  0
  -20.3060  -27.6630    8.7340 O   0  5  0  0  0  0
  -23.7200  -22.7450   10.8270 C   0  0  0  0  0  0
  -24.1350  -21.3960   11.4070 C   0  0  1  0  0  0
  -23.3630  -21.0550   12.5570 O   0  0  0  0  0  0
  -23.8980  -20.2570   10.4310 C   0  0  1  0  0  0
  -24.9120  -20.1200    9.4590 O   0  0  0  0  0  0
  -23.8110  -19.0660   11.3580 C   0  0  1  0  0  0
  -25.0860  -18.6750   11.8090 O   0  0  0  0  0  0
  -23.1160  -19.6590   12.5600 C   0  0  2  0  0  0
  -21.6640  -19.4010   12.5500 N   0  0  0  0  0  0
  -20.6710  -20.3460   12.4730 C   0  0  0  0  0  0
  -19.4720  -19.7290   12.5100 N   0  0  0  0  0  0
  -19.6760  -18.3930   12.5970 C   0  0  0  0  0  0
  -18.8060  -17.3080   12.6740 C   0  0  0  0  0  0
  -17.4810  -17.4580   12.6420 N   0  0  0  0  0  0
  -19.3370  -16.0390   12.7610 N   0  0  0  0  0  0
  -20.7040  -15.8490   12.7870 C   0  0  0  0  0  0
  -21.5680  -16.9230   12.7180 N   0  0  0  0  0  0
  -21.0530  -18.1760   12.6410 C   0  0  0  0  0  0
  -21.4779  -26.0673   10.9949 H   0  0  0  0  0  0
  -20.6968  -24.6579   10.6446 H   0  0  0  0  0  0
  -22.3568  -26.1964    8.8047 H   0  0  0  0  0  0
  -21.9106  -24.6335    7.1491 H   0  0  0  0  0  0
  -20.4829  -24.0626    7.8856 H   0  0  0  0  0  0
  -23.3357  -23.3042    8.5128 H   0  0  0  0  0  0
  -22.0089  -22.2711    8.0862 H   0  0  0  0  0  0
  -23.9686  -23.5354   11.5352 H   0  0  0  0  0  0
  -24.3089  -22.9513    9.9333 H   0  0  0  0  0  0
  -25.1907  -21.4276   11.6765 H   0  0  0  0  0  0
  -22.9381  -20.3999    9.9346 H   0  0  0  0  0  0
  -24.7013  -19.3859    8.8774 H   0  0  0  0  0  0
  -23.2525  -18.2384   10.9208 H   0  0  0  0  0  0
  -25.0009  -17.9188   12.3942 H   0  0  0  0  0  0
  -23.5448  -19.2269   13.4642 H   0  0  0  0  0  0
  -20.9263  -21.3927   12.3975 H   0  0  0  0  0  0
  -16.8796  -16.6487   12.7001 H   0  0  0  0  0  0
  -17.0791  -18.3809   12.5596 H   0  0  0  0  0  0
  -21.1091  -14.8507   12.8621 H   0  0  0  0  0  0
  1  2  1  0  0  0
  1 27  1  0  0  0
  1 28  1  0  0  0
  2  3  1  0  0  0
  2  6  1  0  0  0
  2 29  1  0  0  0
  3  4  1  0  0  0
  3 30  1  0  0  0
  3 31  1  0  0  0
  4  5  1  0  0  0
  4 32  1  0  0  0
  4 33  1  0  0  0
  5  9  1  0  0  0
  6  7  2  0  0  0
  6  8  1  0  0  0
  9 10  1  0  0  0
  9 34  1  0  0  0
  9 35  1  0  0  0
 10 11  1  0  0  0
 10 12  1  0  0  0
 10 36  1  0  0  0
 11 16  1  0  0  0
 12 13  1  0  0  0
 12 14  1  0  0  0
 12 37  1  0  0  0
 13 38  1  0  0  0
 14 15  1  0  0  0
 14 16  1  0  0  0
 14 39  1  0  0  0
 15 40  1  0  0  0
 16 17  1  0  0  0
 16 41  1  0  0  0
 17 18  1  0  0  0
 17 26  1  0  0  0
 18 19  2  0  0  0
 18 42  1  0  0  0
 19 20  1  0  0  0
 20 21  1  0  0  0
 20 26  2  0  0  0
 21 22  1  0  0  0
 21 23  2  0  0  0
 22 43  1  0  0  0
 22 44  1  0  0  0
 23 24  1  0  0  0
 24 25  2  0  0  0
 24 45  1  0  0  0
 25 26  1  0  0  0
M  CHG  1   8  -1
M  END
> <s_m_entry_id>
1169

> <s_m_entry_name>
7rez_A_ligand

> <s_pdb_PDB_TITLE>
MYCOBACTERIUM ABSCESSUS TRNA METHYLTRANSFERASE IN COMPLEX WITH S- ADENOSYL-L-HOMOCYSTEINE

> <s_pdb_PDB_ID>
7REZ

> <r_pdb_PDB_CRYST1_a>
74.242

> <r_pdb_PDB_CRYST1_b>
79.094

> <r_pdb_PDB_CRYST1_c>
86.631

> <r_pdb_PDB_CRYST1_alpha>
90

> <r_pdb_PDB_CRYST1_beta>
90

> <r_pdb_PDB_CRYST1_gamma>
90

> <s_pdb_PDB_CRYST1_Space_Group>
P 21 21 21

> <i_pdb_PDB_CRYST1_z>
8

> <s_pdb_PDB_CLASSIFICATION>
TRANSFERASE

> <s_pdb_PDB_DEPOSITION_DATE>
13-JUL-21

> <s_pdb_PDB_format_version>
3.30

> <r_pdb_PDB_R>
0.187

> <r_pdb_PDB_Rfree>
0.216

> <r_pdb_PDB_RESOLUTION>
1.64

> <s_pdb_PDB_EXPDTA>
X-RAY DIFFRACTION

> <r_pdb_PDB_EXPDTA_TEMPERATURE>
100

> <r_pdb_PDB_EXPDTA_PH>
6.5

> <s_pdb_PDB_REMARK_350_Biomolecule_1_Transform_1_Chains>
A, B

> <s_pdb_PDB_REMARK_350_Biomolecule_1_Transform_1_Matrix_1>
1.000000 0.000000 0.000000   0.000000;0.000000 1.000000 0.000000   0.000000;0.000000 0.000000 1.000000   0.000000

> <s_ppw_entry_id_backup>
1165

> <b_ppw_prepared>
1

> <s_ppw_prepared_with_version>
2021-1

> <b_ppw_assigned_bond_orders>
1

> <b_ppw_added_hydrogens>
1

> <b_ppw_treated_metals>
1

> <b_ppw_created_disulfur>
1

> <s_m_Chain_Name>
A

> <s_m_subgroup_title>
7rez - preprocessed_split_by_chain->7rez - preprocessed_chainA_split_by_structure

> <s_m_subgroupid>
7rez - preprocessed_split_by_chain->7rez - preprocessed_chainA_split_by_structure

> <b_m_subgroup_collapsed>
0

$$$$
