7rf0 - preprocessed_chainA_ligand
                    3D
 Schrodinger Suite 2021-1.
 45 47  0  0  1  0            999 V2000
  -20.7020  -23.5790    7.6920 N   0  0  0  0  0  0
  -21.4470  -22.7990    6.7090 C   0  0  1  0  0  0
  -22.5930  -22.0490    7.3730 C   0  0  0  0  0  0
  -23.1730  -22.7820    8.5700 C   0  0  0  0  0  0
  -22.2400  -22.6500   10.1220 S   0  0  0  0  0  0
  -20.5570  -21.8140    5.9670 C   0  0  0  0  0  0
  -19.3480  -22.0110    5.8630 O   0  0  0  0  0  0
  -21.0350  -20.8030    5.4510 O   0  5  0  0  0  0
  -23.7920  -22.6680   11.0630 C   0  0  0  0  0  0
  -24.2340  -21.3010   11.5790 C   0  0  1  0  0  0
  -23.4260  -20.9010   12.6770 O   0  0  0  0  0  0
  -24.0900  -20.1910   10.5460 C   0  0  1  0  0  0
  -25.2050  -20.0740    9.6920 O   0  0  0  0  0  0
  -23.9160  -18.9620   11.3960 C   0  0  1  0  0  0
  -25.1880  -18.5330   11.8260 O   0  0  0  0  0  0
  -23.1860  -19.5100   12.6030 C   0  0  2  0  0  0
  -21.7340  -19.2910   12.5410 N   0  0  0  0  0  0
  -20.7570  -20.2520   12.4500 C   0  0  0  0  0  0
  -19.5420  -19.6490   12.4480 N   0  0  0  0  0  0
  -19.7260  -18.3150   12.5360 C   0  0  0  0  0  0
  -18.8340  -17.2480   12.5800 C   0  0  0  0  0  0
  -17.5090  -17.4190   12.5150 N   0  0  0  0  0  0
  -19.3520  -15.9780   12.6730 N   0  0  0  0  0  0
  -20.7150  -15.7710   12.7330 C   0  0  0  0  0  0
  -21.6040  -16.8230   12.7050 N   0  0  0  0  0  0
  -21.1000  -18.0780   12.6100 C   0  0  0  0  0  0
  -19.9474  -24.0682    7.2324 H   0  0  0  0  0  0
  -20.3230  -22.9613    8.3955 H   0  0  0  0  0  0
  -21.8710  -23.4890    5.9794 H   0  0  0  0  0  0
  -23.3809  -21.8705    6.6413 H   0  0  0  0  0  0
  -22.2480  -21.0631    7.6847 H   0  0  0  0  0  0
  -23.3040  -23.8343    8.3180 H   0  0  0  0  0  0
  -24.1963  -22.4453    8.7362 H   0  0  0  0  0  0
  -23.6975  -23.3573   11.9020 H   0  0  0  0  0  0
  -24.5832  -23.0942   10.4462 H   0  0  0  0  0  0
  -25.2737  -21.3584   11.9011 H   0  0  0  0  0  0
  -23.1904  -20.3567    9.9532 H   0  0  0  0  0  0
  -25.7014  -20.8957    9.6987 H   0  0  0  0  0  0
  -23.3571  -18.1759   10.8883 H   0  0  0  0  0  0
  -25.0943  -17.7480   12.3706 H   0  0  0  0  0  0
  -23.5786  -19.0339   13.5015 H   0  0  0  0  0  0
  -21.0295  -21.2956   12.3943 H   0  0  0  0  0  0
  -16.8942  -16.6185   12.5502 H   0  0  0  0  0  0
  -17.1233  -18.3487   12.4308 H   0  0  0  0  0  0
  -21.1061  -14.7668   12.8037 H   0  0  0  0  0  0
  1  2  1  0  0  0
  1 27  1  0  0  0
  1 28  1  0  0  0
  2  3  1  0  0  0
  2  6  1  0  0  0
  2 29  1  0  0  0
  3  4  1  0  0  0
  3 30  1  0  0  0
  3 31  1  0  0  0
  4  5  1  0  0  0
  4 32  1  0  0  0
  4 33  1  0  0  0
  5  9  1  0  0  0
  6  7  2  0  0  0
  6  8  1  0  0  0
  9 10  1  0  0  0
  9 34  1  0  0  0
  9 35  1  0  0  0
 10 11  1  0  0  0
 10 12  1  0  0  0
 10 36  1  0  0  0
 11 16  1  0  0  0
 12 13  1  0  0  0
 12 14  1  0  0  0
 12 37  1  0  0  0
 13 38  1  0  0  0
 14 15  1  0  0  0
 14 16  1  0  0  0
 14 39  1  0  0  0
 15 40  1  0  0  0
 16 17  1  0  0  0
 16 41  1  0  0  0
 17 18  1  0  0  0
 17 26  1  0  0  0
 18 19  2  0  0  0
 18 42  1  0  0  0
 19 20  1  0  0  0
 20 21  1  0  0  0
 20 26  2  0  0  0
 21 22  1  0  0  0
 21 23  2  0  0  0
 22 43  1  0  0  0
 22 44  1  0  0  0
 23 24  1  0  0  0
 24 25  2  0  0  0
 24 45  1  0  0  0
 25 26  1  0  0  0
M  CHG  1   8  -1
M  END
> <s_m_entry_id>
1175

> <s_m_entry_name>
7rf0_A_ligand

> <s_pdb_PDB_TITLE>
MYCOBACTERIUM ABSCESSUS TRNA METHYLTRANSFERASE IN COMPLEX WITH S- ADENOSYL-L-HOMOCYSTEINE AND MAGNESIUM

> <s_pdb_PDB_ID>
7RF0

> <r_pdb_PDB_CRYST1_a>
74.398

> <r_pdb_PDB_CRYST1_b>
78.835

> <r_pdb_PDB_CRYST1_c>
86.656

> <r_pdb_PDB_CRYST1_alpha>
90

> <r_pdb_PDB_CRYST1_beta>
90

> <r_pdb_PDB_CRYST1_gamma>
90

> <s_pdb_PDB_CRYST1_Space_Group>
P 21 21 21

> <i_pdb_PDB_CRYST1_z>
8

> <s_pdb_PDB_CLASSIFICATION>
TRANSFERASE

> <s_pdb_PDB_DEPOSITION_DATE>
13-JUL-21

> <s_pdb_PDB_format_version>
3.30

> <r_pdb_PDB_R>
0.18

> <r_pdb_PDB_Rfree>
0.213

> <r_pdb_PDB_RESOLUTION>
1.59

> <s_pdb_PDB_EXPDTA>
X-RAY DIFFRACTION

> <r_pdb_PDB_EXPDTA_TEMPERATURE>
100

> <s_pdb_PDB_REMARK_350_Biomolecule_1_Transform_1_Chains>
A, B

> <s_pdb_PDB_REMARK_350_Biomolecule_1_Transform_1_Matrix_1>
1.000000 0.000000 0.000000   0.000000;0.000000 1.000000 0.000000   0.000000;0.000000 0.000000 1.000000   0.000000

> <s_ppw_entry_id_backup>
1171

> <b_ppw_prepared>
1

> <s_ppw_prepared_with_version>
2021-1

> <b_ppw_assigned_bond_orders>
1

> <b_ppw_added_hydrogens>
1

> <b_ppw_treated_metals>
1

> <b_ppw_created_disulfur>
1

> <s_m_Chain_Name>
A

> <s_m_subgroup_title>
7rf0 - preprocessed_split_by_chain->7rf0 - preprocessed_chainA_split_by_structure

> <s_m_subgroupid>
7rf0 - preprocessed_split_by_chain->7rf0 - preprocessed_chainA_split_by_structure

> <b_m_subgroup_collapsed>
0

$$$$
