1uak - preprocessed_ligand1
                    3D
 Schrodinger Suite 2021-1.
 50 52  0  0  1  0            999 V2000
  -31.6940   70.4930 -132.4450 N   0  0  0  0  0  0
  -30.2450   70.7530 -132.5630 C   0  0  2  0  0  0
  -29.4840   69.4850 -132.9680 C   0  0  0  0  0  0
  -30.0020   68.7740 -133.8490 O   0  0  0  0  0  0
  -28.2370   69.4510 -132.6550 O   0  0  0  0  0  0
  -29.7790   71.3810 -131.2560 C   0  0  0  0  0  0
  -28.7160   72.4180 -131.4940 C   0  0  0  0  0  0
  -28.0380   73.0750 -129.9620 S   0  3  2  0  0  0
  -29.1450   74.4530 -129.6390 C   0  0  0  0  0  0
  -26.5680   73.9800 -130.3740 C   0  0  0  0  0  0
  -25.2530   73.2250 -130.3190 C   0  0  1  0  0  0
  -24.9910   72.7450 -128.9530 O   0  0  0  0  0  0
  -25.2450   71.9860 -131.2400 C   0  0  1  0  0  0
  -23.9930   71.9680 -131.9480 O   0  0  0  0  0  0
  -25.2720   70.8100 -130.2740 C   0  0  1  0  0  0
  -24.8660   69.5190 -130.6990 O   0  0  0  0  0  0
  -24.7100   71.3620 -128.9440 C   0  0  2  0  0  0
  -25.3220   70.7160 -127.7840 N   0  0  0  0  0  0
  -26.5340   70.9820 -127.1950 C   0  0  0  0  0  0
  -26.9060   70.1100 -126.2990 N   0  0  0  0  0  0
  -25.8050   69.2690 -126.1930 C   0  0  0  0  0  0
  -25.5500   68.0990 -125.4180 C   0  0  0  0  0  0
  -26.4620   67.6140 -124.5480 N   0  0  0  0  0  0
  -24.3310   67.4640 -125.5210 N   0  0  0  0  0  0
  -23.4510   67.9100 -126.4550 C   0  0  0  0  0  0
  -23.6230   68.9610 -127.2960 N   0  0  0  0  0  0
  -24.8090   69.6270 -127.0960 C   0  0  0  0  0  0
  -32.1685   71.3436 -132.1778 H   0  0  0  0  0  0
  -32.0525   70.1728 -133.3333 H   0  0  0  0  0  0
  -30.1042   71.4903 -133.3533 H   0  0  0  0  0  0
  -27.8549   68.6214 -132.9506 H   0  0  0  0  0  0
  -29.3873   70.6040 -130.5996 H   0  0  0  0  0  0
  -30.6285   71.8414 -130.7516 H   0  0  0  0  0  0
  -29.1316   73.2338 -132.0855 H   0  0  0  0  0  0
  -27.9126   71.9834 -132.0888 H   0  0  0  0  0  0
  -28.8442   74.9534 -128.7185 H   0  0  0  0  0  0
  -29.0982   75.1593 -130.4679 H   0  0  0  0  0  0
  -30.1651   74.0834 -129.5344 H   0  0  0  0  0  0
  -26.5010   74.8630 -129.7385 H   0  0  0  0  0  0
  -26.6855   74.4233 -131.3628 H   0  0  0  0  0  0
  -24.4473   73.8948 -130.6196 H   0  0  0  0  0  0
  -26.0979   71.9764 -131.9187 H   0  0  0  0  0  0
  -23.9643   71.2042 -132.5289 H   0  0  0  0  0  0
  -26.3339   70.6824 -130.0638 H   0  0  0  0  0  0
  -24.9456   68.9013 -129.9684 H   0  0  0  0  0  0
  -23.6308   71.2113 -128.9158 H   0  0  0  0  0  0
  -27.0954   71.8574 -127.4863 H   0  0  0  0  0  0
  -26.2562   66.7835 -124.0113 H   0  0  0  0  0  0
  -27.3499   68.0818 -124.4341 H   0  0  0  0  0  0
  -22.5010   67.4125 -126.5829 H   0  0  0  0  0  0
  1  2  1  0  0  0
  1 28  1  0  0  0
  1 29  1  0  0  0
  2  3  1  0  0  0
  2  6  1  0  0  0
  2 30  1  0  0  0
  3  4  2  0  0  0
  3  5  1  0  0  0
  5 31  1  0  0  0
  6  7  1  0  0  0
  6 32  1  0  0  0
  6 33  1  0  0  0
  7  8  1  0  0  0
  7 34  1  0  0  0
  7 35  1  0  0  0
  8  9  1  0  0  0
  8 10  1  0  0  0
  9 36  1  0  0  0
  9 37  1  0  0  0
  9 38  1  0  0  0
 10 11  1  0  0  0
 10 39  1  0  0  0
 10 40  1  0  0  0
 11 12  1  0  0  0
 11 13  1  0  0  0
 11 41  1  0  0  0
 12 17  1  0  0  0
 13 14  1  0  0  0
 13 15  1  0  0  0
 13 42  1  0  0  0
 14 43  1  0  0  0
 15 16  1  0  0  0
 15 17  1  0  0  0
 15 44  1  0  0  0
 16 45  1  0  0  0
 17 18  1  0  0  0
 17 46  1  0  0  0
 18 19  1  0  0  0
 18 27  1  0  0  0
 19 20  2  0  0  0
 19 47  1  0  0  0
 20 21  1  0  0  0
 21 22  1  0  0  0
 21 27  2  0  0  0
 22 23  1  0  0  0
 22 24  2  0  0  0
 23 48  1  0  0  0
 23 49  1  0  0  0
 24 25  1  0  0  0
 25 26  2  0  0  0
 25 50  1  0  0  0
 26 27  1  0  0  0
M  CHG  1   8   1
M  END
> <s_m_entry_id>
21

> <s_m_entry_name>
1uak_ligand1

> <s_ppw_entry_id_backup>
13

> <b_ppw_prepared>
1

> <s_ppw_prepared_with_version>
2021-1

> <b_ppw_assigned_bond_orders>
1

> <b_ppw_added_hydrogens>
1

> <b_ppw_treated_metals>
1

> <b_ppw_created_disulfur>
1

> <s_pdb_PDB_TITLE>
CRYSTAL STRUCTURE OF TRNA(M1G37)METHYLTRANSFERASE: INSIGHT INTO TRNA RECOGNITION

> <s_pdb_PDB_ID>
1UAK

> <r_pdb_PDB_CRYST1_a>
93.562

> <r_pdb_PDB_CRYST1_b>
93.562

> <r_pdb_PDB_CRYST1_c>
177.971

> <r_pdb_PDB_CRYST1_alpha>
90

> <r_pdb_PDB_CRYST1_beta>
90

> <r_pdb_PDB_CRYST1_gamma>
120

> <s_pdb_PDB_CRYST1_Space_Group>
H 3 2

> <i_pdb_PDB_CRYST1_z>
18

> <s_pdb_PDB_CLASSIFICATION>
TRANSFERASE

> <s_pdb_PDB_DEPOSITION_DATE>
11-MAR-03

> <s_pdb_PDB_format_version>
3.30

> <r_pdb_PDB_R>
0.176

> <r_pdb_PDB_Rfree>
0.216

> <r_pdb_PDB_RESOLUTION>
2.05

> <s_pdb_PDB_EXPDTA>
X-RAY DIFFRACTION

> <r_pdb_PDB_EXPDTA_TEMPERATURE>
100

> <r_pdb_PDB_EXPDTA_PH>
6.5

> <s_pdb_PDB_REMARK_350_Biomolecule_1_Transform_1_Chains>
A

> <s_pdb_PDB_REMARK_350_Biomolecule_1_Transform_1_Matrix_1>
1.000000 0.000000 0.000000   0.000000;0.000000 1.000000 0.000000   0.000000;0.000000 0.000000 1.000000   0.000000

> <s_pdb_PDB_REMARK_350_Biomolecule_1_Transform_1_Matrix_2>
-0.500000 0.866025 0.000000   -93.562000;0.866025 0.500000 0.000000   54.018050;0.000000 0.000000 -1.000000   -237.294670

> <s_m_subgroup_title>
1uak - preprocessed_split_by_structure

> <s_m_subgroupid>
1uak - preprocessed_split_by_structure

> <b_m_subgroup_collapsed>
0

$$$$
