1ual - preprocessed_ligand1
                    3D
 Schrodinger Suite 2021-1.
 45 47  0  0  1  0            999 V2000
  -31.7490   70.9150 -132.3720 N   0  0  0  0  0  0
  -30.2900   70.5930 -132.0910 C   0  0  1  0  0  0
  -29.6050   71.3280 -130.9920 C   0  0  0  0  0  0
  -28.7640   72.5400 -131.3090 C   0  0  0  0  0  0
  -28.0760   73.0570 -129.6880 S   0  0  0  0  0  0
  -30.2290   69.0510 -131.7770 C   0  0  0  0  0  0
  -31.0440   68.5570 -130.9730 O   0  0  0  0  0  0
  -29.2230   68.4270 -132.2930 O   0  5  0  0  0  0
  -26.6780   74.0210 -130.1320 C   0  0  0  0  0  0
  -25.3350   73.1560 -130.1380 C   0  0  1  0  0  0
  -25.0340   72.7450 -128.7940 O   0  0  0  0  0  0
  -25.2290   71.9930 -131.0650 C   0  0  1  0  0  0
  -23.9870   71.9720 -131.7540 O   0  0  0  0  0  0
  -25.4130   70.8050 -130.0630 C   0  0  1  0  0  0
  -24.8970   69.5830 -130.5640 O   0  0  0  0  0  0
  -24.8120   71.2750 -128.7180 C   0  0  2  0  0  0
  -25.4170   70.7660 -127.6490 N   0  0  0  0  0  0
  -26.6090   71.0520 -127.0190 C   0  0  0  0  0  0
  -26.9790   70.2030 -126.1190 N   0  0  0  0  0  0
  -25.8630   69.3380 -125.9870 C   0  0  0  0  0  0
  -25.6880   68.1280 -125.2300 C   0  0  0  0  0  0
  -26.5550   67.7210 -124.2960 N   0  0  0  0  0  0
  -24.4570   67.5280 -125.3640 N   0  0  0  0  0  0
  -23.5240   67.9280 -126.2770 C   0  0  0  0  0  0
  -23.6930   69.0430 -127.0680 N   0  0  0  0  0  0
  -24.8800   69.6870 -126.8890 C   0  0  0  0  0  0
  -32.0788   70.3446 -133.1375 H   0  0  0  0  0  0
  -32.3011   70.7239 -131.5481 H   0  0  0  0  0  0
  -29.7282   70.7679 -133.0086 H   0  0  0  0  0  0
  -29.0073   70.6236 -130.4135 H   0  0  0  0  0  0
  -30.3400   71.5956 -130.2329 H   0  0  0  0  0  0
  -29.4041   73.3316 -131.6985 H   0  0  0  0  0  0
  -27.9484   72.2502 -131.9714 H   0  0  0  0  0  0
  -26.5722   74.8500 -129.4323 H   0  0  0  0  0  0
  -26.8350   74.4538 -131.1200 H   0  0  0  0  0  0
  -24.5386   73.8420 -130.4265 H   0  0  0  0  0  0
  -26.0519   72.0092 -131.7796 H   0  0  0  0  0  0
  -23.9577   71.2112 -132.3387 H   0  0  0  0  0  0
  -26.4839   70.6690 -129.9117 H   0  0  0  0  0  0
  -25.0331   68.8880 -129.9159 H   0  0  0  0  0  0
  -23.7446   71.0567 -128.6860 H   0  0  0  0  0  0
  -27.1644   71.9375 -127.2905 H   0  0  0  0  0  0
  -26.3872   66.8626 -123.7910 H   0  0  0  0  0  0
  -27.3774   68.2722 -124.0959 H   0  0  0  0  0  0
  -22.6117   67.3631 -126.3998 H   0  0  0  0  0  0
  1  2  1  0  0  0
  1 27  1  0  0  0
  1 28  1  0  0  0
  2  3  1  0  0  0
  2  6  1  0  0  0
  2 29  1  0  0  0
  3  4  1  0  0  0
  3 30  1  0  0  0
  3 31  1  0  0  0
  4  5  1  0  0  0
  4 32  1  0  0  0
  4 33  1  0  0  0
  5  9  1  0  0  0
  6  7  2  0  0  0
  6  8  1  0  0  0
  9 10  1  0  0  0
  9 34  1  0  0  0
  9 35  1  0  0  0
 10 11  1  0  0  0
 10 12  1  0  0  0
 10 36  1  0  0  0
 11 16  1  0  0  0
 12 13  1  0  0  0
 12 14  1  0  0  0
 12 37  1  0  0  0
 13 38  1  0  0  0
 14 15  1  0  0  0
 14 16  1  0  0  0
 14 39  1  0  0  0
 15 40  1  0  0  0
 16 17  1  0  0  0
 16 41  1  0  0  0
 17 18  1  0  0  0
 17 26  1  0  0  0
 18 19  2  0  0  0
 18 42  1  0  0  0
 19 20  1  0  0  0
 20 21  1  0  0  0
 20 26  2  0  0  0
 21 22  1  0  0  0
 21 23  2  0  0  0
 22 43  1  0  0  0
 22 44  1  0  0  0
 23 24  1  0  0  0
 24 25  2  0  0  0
 24 45  1  0  0  0
 25 26  1  0  0  0
M  CHG  1   8  -1
M  END
> <s_m_entry_id>
25

> <s_m_entry_name>
1ual_ligand1

> <s_ppw_entry_id_backup>
14

> <b_ppw_prepared>
1

> <s_ppw_prepared_with_version>
2021-1

> <b_ppw_assigned_bond_orders>
1

> <b_ppw_added_hydrogens>
1

> <b_ppw_treated_metals>
1

> <b_ppw_created_disulfur>
1

> <s_pdb_PDB_TITLE>
CRYSTAL STRUCTURE OF TRNA(M1G37)METHYLTRANSFERASE: INSIGHT INTO TRNA RECOGNITION

> <s_pdb_PDB_ID>
1UAL

> <r_pdb_PDB_CRYST1_a>
93.688

> <r_pdb_PDB_CRYST1_b>
93.688

> <r_pdb_PDB_CRYST1_c>
177.667

> <r_pdb_PDB_CRYST1_alpha>
90

> <r_pdb_PDB_CRYST1_beta>
90

> <r_pdb_PDB_CRYST1_gamma>
120

> <s_pdb_PDB_CRYST1_Space_Group>
H 3 2

> <i_pdb_PDB_CRYST1_z>
18

> <s_pdb_PDB_CLASSIFICATION>
TRANSFERASE

> <s_pdb_PDB_DEPOSITION_DATE>
11-MAR-03

> <s_pdb_PDB_format_version>
3.30

> <r_pdb_PDB_R>
0.184

> <r_pdb_PDB_Rfree>
0.215

> <r_pdb_PDB_RESOLUTION>
1.8

> <s_pdb_PDB_EXPDTA>
X-RAY DIFFRACTION

> <r_pdb_PDB_EXPDTA_TEMPERATURE>
100

> <r_pdb_PDB_EXPDTA_PH>
6.5

> <s_pdb_PDB_REMARK_350_Biomolecule_1_Transform_1_Chains>
A

> <s_pdb_PDB_REMARK_350_Biomolecule_1_Transform_1_Matrix_1>
1.000000 0.000000 0.000000   0.000000;0.000000 1.000000 0.000000   0.000000;0.000000 0.000000 1.000000   0.000000

> <s_pdb_PDB_REMARK_350_Biomolecule_1_Transform_1_Matrix_2>
-0.500000 0.866025 0.000000   -93.688000;0.866025 0.500000 0.000000   54.090790;0.000000 0.000000 -1.000000   -236.889330

> <s_m_subgroup_title>
1ual - preprocessed_split_by_structure

> <s_m_subgroupid>
1ual - preprocessed_split_by_structure

> <b_m_subgroup_collapsed>
0

$$$$
