1uam_ligand
                    3D
 Schrodinger Suite 2021-1.
 46 48  0  0  1  0            999 V2000
  -30.3890   69.7700 -134.9460 N   0  3  0  0  0  0
  -29.2590   69.1920 -134.1000 C   0  0  1  0  0  0
  -28.7520   69.9800 -132.9330 C   0  0  0  0  0  0
  -28.4330   71.4520 -133.0900 C   0  0  0  0  0  0
  -27.8300   72.0300 -131.4440 S   0  0  0  0  0  0
  -29.7590   67.7760 -133.6110 C   0  0  0  0  0  0
  -30.9330   67.6520 -133.2140 O   0  5  0  0  0  0
  -28.9730   66.7900 -133.8830 O   0  0  0  0  0  0
  -26.3850   72.9430 -131.8180 C   0  0  0  0  0  0
  -25.0960   72.0250 -131.7190 C   0  0  1  0  0  0
  -24.7380   71.8820 -130.3490 O   0  0  0  0  0  0
  -25.0540   70.6840 -132.3680 C   0  0  1  0  0  0
  -24.6300   70.8290 -133.7130 O   0  0  0  0  0  0
  -23.9700   69.9820 -131.4820 C   0  0  1  0  0  0
  -22.6490   70.2540 -131.9590 O   0  0  0  0  0  0
  -24.2330   70.5210 -130.0610 C   0  0  2  0  0  0
  -25.0350   69.8220 -129.2630 N   0  0  0  0  0  0
  -26.2720   70.0930 -128.6960 C   0  0  0  0  0  0
  -26.6620   69.2850 -127.7660 N   0  0  0  0  0  0
  -25.5760   68.3850 -127.6350 C   0  0  0  0  0  0
  -25.3850   67.2640 -126.7560 C   0  0  0  0  0  0
  -26.4030   66.6980 -126.1110 N   0  0  0  0  0  0
  -24.1840   66.6010 -126.9090 N   0  0  0  0  0  0
  -23.1990   67.0110 -127.7600 C   0  0  0  0  0  0
  -23.3640   68.0620 -128.6300 N   0  0  0  0  0  0
  -24.5650   68.7030 -128.5140 C   0  0  0  0  0  0
  -30.1218   70.6821 -135.2876 H   0  0  0  0  0  0
  -30.5712   69.1581 -135.7286 H   0  0  0  0  0  0
  -31.2233   69.8531 -134.3828 H   0  0  0  0  0  0
  -28.4128   69.0223 -134.7658 H   0  0  0  0  0  0
  -27.8830   69.4725 -132.5143 H   0  0  0  0  0  0
  -29.4389   69.8543 -132.0961 H   0  0  0  0  0  0
  -29.3416   71.9934 -133.3535 H   0  0  0  0  0  0
  -27.6413   71.5742 -133.8292 H   0  0  0  0  0  0
  -26.2916   73.7761 -131.1213 H   0  0  0  0  0  0
  -26.4638   73.3504 -132.8259 H   0  0  0  0  0  0
  -24.2898   72.5989 -132.1759 H   0  0  0  0  0  0
  -26.0162   70.1761 -132.3029 H   0  0  0  0  0  0
  -24.6016   69.9671 -134.1347 H   0  0  0  0  0  0
  -24.1403   68.9055 -131.4938 H   0  0  0  0  0  0
  -22.0081   69.8117 -131.3975 H   0  0  0  0  0  0
  -23.2704   70.6222 -129.5598 H   0  0  0  0  0  0
  -26.8487   70.9399 -129.0375 H   0  0  0  0  0  0
  -26.2386   65.9112 -125.4995 H   0  0  0  0  0  0
  -27.3397   67.0555 -126.2332 H   0  0  0  0  0  0
  -22.2454   66.5041 -127.7665 H   0  0  0  0  0  0
  1  2  1  0  0  0
  1 27  1  0  0  0
  1 28  1  0  0  0
  1 29  1  0  0  0
  2  6  1  0  0  0
  2  3  1  0  0  0
  2 30  1  0  0  0
  3  4  1  0  0  0
  3 31  1  0  0  0
  3 32  1  0  0  0
  4  5  1  0  0  0
  4 33  1  0  0  0
  4 34  1  0  0  0
  5  9  1  0  0  0
  6  8  2  0  0  0
  6  7  1  0  0  0
  9 10  1  0  0  0
  9 35  1  0  0  0
  9 36  1  0  0  0
 10 12  1  0  0  0
 10 11  1  0  0  0
 10 37  1  0  0  0
 11 16  1  0  0  0
 12 13  1  0  0  0
 12 14  1  0  0  0
 12 38  1  0  0  0
 13 39  1  0  0  0
 14 15  1  0  0  0
 14 16  1  0  0  0
 14 40  1  0  0  0
 15 41  1  0  0  0
 16 17  1  0  0  0
 16 42  1  0  0  0
 17 18  1  0  0  0
 17 26  1  0  0  0
 18 19  2  0  0  0
 18 43  1  0  0  0
 19 20  1  0  0  0
 20 26  2  0  0  0
 20 21  1  0  0  0
 21 23  2  0  0  0
 21 22  1  0  0  0
 22 44  1  0  0  0
 22 45  1  0  0  0
 23 24  1  0  0  0
 24 25  2  0  0  0
 24 46  1  0  0  0
 25 26  1  0  0  0
M  CHG  2   1   1   7  -1
M  END
> <s_m_entry_id>
309

> <s_m_entry_name>
1uam.1_ligand

> <s_m_subgroup_title>
Ligands

> <s_m_subgroupid>
Ligands

> <b_m_subgroup_collapsed>
0

$$$$
