4mcb_ligand1
                    3D
 Schrodinger Suite 2021-1.
 47 50  0  0  1  0            999 V2000
   25.1930   44.2490   -2.5680 C   0  0  0  0  0  0
   23.6750   42.8880   -3.8210 C   0  0  0  0  0  0
   26.2580   43.5300   -3.0800 C   0  0  0  0  0  0
   24.7430   42.1550   -4.3160 C   0  0  0  0  0  0
   28.1150   38.6900   -8.6670 C   0  0  0  0  0  0
   28.1880   37.9490   -7.5100 C   0  0  0  0  0  0
   20.7320   42.9490    1.6530 C   0  0  0  0  0  0
   20.2110   41.6750   -0.1930 C   0  0  0  0  0  0
   20.8860   42.8430    0.2890 C   0  0  0  0  0  0
   23.8970   43.9380   -2.9510 C   0  0  0  0  0  0
   26.0370   42.4830   -3.9640 C   0  0  0  0  0  0
   19.5810   40.9840    0.8310 C   0  0  0  0  0  0
   28.4870   40.1180   -7.1160 C   0  0  0  0  0  0
   18.7750   39.3570   -0.4630 C   0  0  0  0  0  0
   20.0810   41.1260   -1.5360 C   0  0  0  0  0  0
   21.6720   43.8880   -0.3510 C   0  0  0  0  0  0
   22.7400   44.7020   -2.3960 C   0  0  0  0  0  0
   27.1800   41.6800   -4.5210 C   0  0  0  0  0  0
   28.7280   41.3440   -6.3280 C   0  0  0  0  0  0
   28.2990   40.0290   -8.4170 N   0  0  0  0  0  0
   18.8630   39.8370    0.7390 N   0  0  0  0  0  0
   28.4280   38.8790   -6.5360 N   0  0  0  0  0  0
   19.3540   39.9540   -1.5690 N   0  0  0  0  0  0
   21.8120   43.8280   -1.7050 N   0  0  0  0  0  0
   27.5010   42.0200   -5.9030 N   0  3  0  0  0  0
   20.5660   41.6140   -2.5490 O   0  0  0  0  0  0
   22.1960   44.7710    0.3220 O   0  0  0  0  0  0
   19.8250   41.6980    2.3820 S   0  0  0  0  0  0
   25.3705   45.0533   -1.8694 H   0  0  0  0  0  0
   22.6663   42.6387   -4.1154 H   0  0  0  0  0  0
   27.2680   43.7822   -2.7923 H   0  0  0  0  0  0
   24.5648   41.3226   -4.9806 H   0  0  0  0  0  0
   27.9404   38.3481   -9.6765 H   0  0  0  0  0  0
   28.0599   36.8772   -7.5462 H   0  0  0  0  0  0
   21.1711   43.7813    2.1829 H   0  0  0  0  0  0
   18.2135   38.4413   -0.5756 H   0  0  0  0  0  0
   22.2212   45.2141   -3.2063 H   0  0  0  0  0  0
   23.1050   45.4623   -1.7055 H   0  0  0  0  0  0
   26.9423   40.6183   -4.4553 H   0  0  0  0  0  0
   28.0624   41.8260   -3.8980 H   0  0  0  0  0  0
   29.3380   42.0343   -6.9107 H   0  0  0  0  0  0
   29.3278   41.0985   -5.4516 H   0  0  0  0  0  0
   28.2693   40.6934   -9.1771 H   0  0  0  0  0  0
   19.2578   39.5294   -2.4804 H   0  0  0  0  0  0
   21.2655   43.1687   -2.2405 H   0  0  0  0  0  0
   27.6223   43.0194   -5.9840 H   0  0  0  0  0  0
   26.7383   41.7416   -6.5037 H   0  0  0  0  0  0
  1  3  1  0  0  0
  1 10  2  0  0  0
  1 29  1  0  0  0
  2  4  2  0  0  0
  2 10  1  0  0  0
  2 30  1  0  0  0
  3 11  2  0  0  0
  3 31  1  0  0  0
  4 11  1  0  0  0
  4 32  1  0  0  0
  5 20  1  0  0  0
  5  6  2  0  0  0
  5 33  1  0  0  0
  6 22  1  0  0  0
  6 34  1  0  0  0
  7  9  2  0  0  0
  7 28  1  0  0  0
  7 35  1  0  0  0
  8 15  1  0  0  0
  8  9  1  0  0  0
  8 12  2  0  0  0
  9 16  1  0  0  0
 10 17  1  0  0  0
 11 18  1  0  0  0
 12 21  1  0  0  0
 12 28  1  0  0  0
 13 20  1  0  0  0
 13 22  2  0  0  0
 13 19  1  0  0  0
 14 23  1  0  0  0
 14 21  2  0  0  0
 14 36  1  0  0  0
 15 26  2  0  0  0
 15 23  1  0  0  0
 16 24  1  0  0  0
 16 27  2  0  0  0
 17 24  1  0  0  0
 17 37  1  0  0  0
 17 38  1  0  0  0
 18 25  1  0  0  0
 18 39  1  0  0  0
 18 40  1  0  0  0
 19 25  1  0  0  0
 19 41  1  0  0  0
 19 42  1  0  0  0
 20 43  1  0  0  0
 23 44  1  0  0  0
 24 45  1  0  0  0
 25 46  1  0  0  0
 25 47  1  0  0  0
M  CHG  1  25   1
M  END
> <s_m_entry_id>
302

> <s_m_entry_name>
4mcb.1_ligand1

> <s_m_subgroup_title>
Ligands

> <s_m_subgroupid>
Ligands

> <b_m_subgroup_collapsed>
0

$$$$
