4mcc_chainA_ligand
                    3D
 Schrodinger Suite 2021-1.
 22 24  0  0  1  0            999 V2000
   26.0490   44.0170   -2.6800 C   0  0  0  0  0  0
   24.8010   42.6790   -4.2150 C   0  0  0  0  0  0
   24.8810   44.6340   -2.2740 C   0  0  0  0  0  0
   23.6310   43.3060   -3.8180 C   0  0  0  0  0  0
   20.6260   43.0660    1.6230 C   0  0  0  0  0  0
   20.0600   41.8340   -0.2450 C   0  0  0  0  0  0
   20.7440   42.9860    0.2550 C   0  0  0  0  0  0
   26.0120   43.0410   -3.6560 C   0  0  0  0  0  0
   23.6710   44.2850   -2.8480 C   0  0  0  0  0  0
   19.4490   41.1130    0.7680 C   0  0  0  0  0  0
   18.6370   39.5260   -0.5500 C   0  0  0  0  0  0
   19.9160   41.3310   -1.5970 C   0  0  0  0  0  0
   21.4930   44.0430   -0.3810 C   0  0  0  0  0  0
   27.2850   42.3670   -4.0650 C   0  0  0  0  0  0
   22.4190   44.9510   -2.3860 C   0  0  0  0  0  0
   18.7300   39.9730    0.6640 N   0  0  0  0  0  0
   19.2020   40.1520   -1.6550 N   0  0  0  0  0  0
   27.5210   42.3620   -5.5030 N   0  0  0  0  0  0
   21.5760   43.9930   -1.7090 N   0  0  0  0  0  0
   20.3850   41.8650   -2.5920 O   0  0  0  0  0  0
   21.9910   44.9340    0.3080 O   0  0  0  0  0  0
   19.7270   41.7960    2.3240 S   0  0  0  0  0  0
  1  3  1  0  0  0
  1  8  2  0  0  0
  2  4  2  0  0  0
  2  8  1  0  0  0
  3  9  2  0  0  0
  4  9  1  0  0  0
  5  7  2  0  0  0
  5 22  1  0  0  0
  6  7  1  0  0  0
  6 10  2  0  0  0
  6 12  1  0  0  0
  7 13  1  0  0  0
  8 14  1  0  0  0
  9 15  1  0  0  0
 10 16  1  0  0  0
 10 22  1  0  0  0
 11 16  2  0  0  0
 11 17  1  0  0  0
 12 17  1  0  0  0
 12 20  2  0  0  0
 13 19  1  0  0  0
 13 21  2  0  0  0
 14 18  1  0  0  0
 15 19  1  0  0  0
M  END
> <s_m_entry_id>
27

> <s_m_entry_name>
4mcc_A_ligand

> <s_pdb_PDB_TITLE>
HINTRMD IN COMPLEX WITH N-[4-(AMINOMETHYL)BENZYL]-4-OXO-3,4- DIHYDROTHIENO[2,3-D]PYRIMIDINE-5-CARBOXAMIDE

> <s_pdb_PDB_ID>
4MCC

> <r_pdb_PDB_CRYST1_a>
74.272

> <r_pdb_PDB_CRYST1_b>
74.272

> <r_pdb_PDB_CRYST1_c>
119.135

> <r_pdb_PDB_CRYST1_alpha>
90

> <r_pdb_PDB_CRYST1_beta>
90

> <r_pdb_PDB_CRYST1_gamma>
90

> <s_pdb_PDB_CRYST1_Space_Group>
P 41

> <i_pdb_PDB_CRYST1_z>
8

> <s_pdb_PDB_CLASSIFICATION>
TRANSFERASE/TRANSFERASE INHIBITOR

> <s_pdb_PDB_DEPOSITION_DATE>
21-AUG-13

> <s_pdb_PDB_format_version>
3.30

> <r_pdb_PDB_R>
0.181

> <r_pdb_PDB_Rfree>
0.206

> <r_pdb_PDB_RESOLUTION>
1.95

> <s_pdb_PDB_EXPDTA>
X-RAY DIFFRACTION

> <r_pdb_PDB_EXPDTA_TEMPERATURE>
140

> <r_pdb_PDB_EXPDTA_PH>
4.5

> <s_pdb_PDB_REMARK_350_Biomolecule_1_Transform_1_Chains>
A, B

> <s_pdb_PDB_REMARK_350_Biomolecule_1_Transform_1_Matrix_1>
1.000000 0.000000 0.000000   0.000000;0.000000 1.000000 0.000000   0.000000;0.000000 0.000000 1.000000   0.000000

> <s_m_Chain_Name>
A

> <s_m_subgroup_title>
4mcc_split_by_chain->4mcc_chainA_split_by_structure

> <s_m_subgroupid>
4mcc_split_by_chain->4mcc_chainA_split_by_structure

> <b_m_subgroup_collapsed>
0

$$$$
