4mcd_ligand
                    3D
 Schrodinger Suite 2021-1.
 16 18  0  0  1  0            999 V2000
   20.6850   62.0290   71.4880 C   0  0  0  0  0  0
   21.5100   63.0740   71.8720 C   0  0  0  0  0  0
   21.8990   64.0440   70.9590 C   0  0  0  0  0  0
   21.8630   65.0880   68.7180 C   0  0  0  0  0  0
   23.1260   65.6340   68.8310 C   0  0  0  0  0  0
   21.8300   66.7910   67.0840 C   0  0  0  0  0  0
   21.1190   65.7770   67.6920 C   0  0  0  0  0  0
   19.7580   65.5820   67.2240 C   0  0  0  0  0  0
   20.2320   67.4400   65.6960 C   0  0  0  0  0  0
   21.4820   64.0100   69.6330 C   0  0  0  0  0  0
   20.6680   62.9620   69.2640 C   0  0  0  0  0  0
   20.2810   61.9830   70.1640 C   0  0  0  0  0  0
   23.4100   66.9280   67.7330 S   0  0  0  0  0  0
   18.9750   64.7410   67.6550 O   0  0  0  0  0  0
   19.4070   66.4630   66.2140 N   0  0  0  0  0  0
   21.4500   67.6390   66.0980 N   0  0  0  0  0  0
  1  2  1  0  0  0
  1 12  2  0  0  0
  2  3  2  0  0  0
  3 10  1  0  0  0
  4  5  2  0  0  0
  4  7  1  0  0  0
  4 10  1  0  0  0
  5 13  1  0  0  0
  6  7  2  0  0  0
  6 13  1  0  0  0
  6 16  1  0  0  0
  7  8  1  0  0  0
  8 14  2  0  0  0
  8 15  1  0  0  0
  9 15  1  0  0  0
  9 16  2  0  0  0
 10 11  2  0  0  0
 11 12  1  0  0  0
M  END
> <s_m_entry_id>
29

> <s_m_entry_name>
4mcd_ligand

> <s_pdb_PDB_TITLE>
HINTRMD IN COMPLEX WITH 5-PHENYLTHIENO[2,3-D]PYRIMIDIN-4(3H)-ONE

> <s_pdb_PDB_ID>
4MCD

> <r_pdb_PDB_CRYST1_a>
93.345

> <r_pdb_PDB_CRYST1_b>
93.345

> <r_pdb_PDB_CRYST1_c>
178.908

> <r_pdb_PDB_CRYST1_alpha>
90

> <r_pdb_PDB_CRYST1_beta>
90

> <r_pdb_PDB_CRYST1_gamma>
120

> <s_pdb_PDB_CRYST1_Space_Group>
H 3 2

> <i_pdb_PDB_CRYST1_z>
18

> <s_pdb_PDB_CLASSIFICATION>
TRANSFERASE/TRANSFERASE INHIBITOR

> <s_pdb_PDB_DEPOSITION_DATE>
21-AUG-13

> <s_pdb_PDB_format_version>
3.30

> <r_pdb_PDB_R>
0.205

> <r_pdb_PDB_Rfree>
0.235

> <r_pdb_PDB_RESOLUTION>
1.55

> <s_pdb_PDB_EXPDTA>
X-RAY DIFFRACTION

> <r_pdb_PDB_EXPDTA_TEMPERATURE>
140

> <r_pdb_PDB_EXPDTA_PH>
4.5

> <s_pdb_PDB_REMARK_350_Biomolecule_1_Transform_1_Chains>
A

> <s_pdb_PDB_REMARK_350_Biomolecule_1_Transform_1_Matrix_1>
1.000000 0.000000 0.000000   0.000000;0.000000 1.000000 0.000000   0.000000;0.000000 0.000000 1.000000   0.000000

> <s_pdb_PDB_REMARK_350_Biomolecule_2_Transform_1_Chains>
A

> <s_pdb_PDB_REMARK_350_Biomolecule_2_Transform_1_Matrix_1>
1.000000 0.000000 0.000000   0.000000;0.000000 1.000000 0.000000   0.000000;0.000000 0.000000 1.000000   0.000000

> <s_pdb_PDB_REMARK_350_Biomolecule_2_Transform_1_Matrix_2>
-0.500000 -0.866025 0.000000   93.345000;-0.866025 0.500000 0.000000   53.892760;0.000000 0.000000 -1.000000   119.272000

> <s_m_subgroup_title>
4mcd_split_by_structure

> <s_m_subgroupid>
4mcd_split_by_structure

> <b_m_subgroup_collapsed>
0

$$$$
