4ypw_ligand
                    3D
 Schrodinger Suite 2021-1.
 30 31  0  0  1  0            999 V2000
  -21.9430   42.8900   -6.2780 N   0  0  0  0  0  0
  -20.9380   41.1070   -7.4420 C   0  0  0  0  0  0
  -21.0860   40.1270   -8.3900 C   0  0  0  0  0  0
  -19.9420   39.7010   -9.0220 C   0  0  0  0  0  0
  -18.7270   40.2590   -8.6900 C   0  0  0  0  0  0
  -18.1720   40.1160  -11.6430 C   0  0  0  0  0  0
  -18.4330   41.9880  -13.6370 C   0  0  0  0  0  0
  -17.1590   41.0120  -11.8810 C   0  0  0  0  0  0
  -19.6980   41.6190   -7.1580 C   0  0  0  0  0  0
  -19.4470   41.0930  -13.3990 C   0  0  0  0  0  0
  -17.2880   41.9490  -12.8780 C   0  0  0  0  0  0
  -19.3170   40.1570  -12.4020 C   0  0  0  0  0  0
  -22.1070   41.6080   -6.7280 C   0  0  0  0  0  0
  -18.0260   39.1090  -10.5620 C   0  0  0  0  0  0
  -18.5830   41.2130   -7.7650 N   0  0  0  0  0  0
  -17.5930   39.7890   -9.3610 N   0  0  0  0  0  0
  -23.0900   40.8960   -6.5860 O   0  0  0  0  0  0
  -22.6866   43.3453   -5.7682 H   0  0  0  0  0  0
  -21.0784   43.3808   -6.4557 H   0  0  0  0  0  0
  -22.0664   39.7294   -8.6071 H   0  0  0  0  0  0
  -19.9970   38.9306   -9.7769 H   0  0  0  0  0  0
  -18.5349   42.7235  -14.4213 H   0  0  0  0  0  0
  -16.2593   40.9810  -11.2843 H   0  0  0  0  0  0
  -19.5907   42.3904   -6.4097 H   0  0  0  0  0  0
  -20.3466   41.1250  -13.9957 H   0  0  0  0  0  0
  -16.4916   42.6539  -13.0655 H   0  0  0  0  0  0
  -20.1146   39.4533  -12.2146 H   0  0  0  0  0  0
  -17.2773   38.3716  -10.8516 H   0  0  0  0  0  0
  -18.9877   38.6291  -10.3807 H   0  0  0  0  0  0
  -16.6738   39.9553   -8.9769 H   0  0  0  0  0  0
  1 13  1  0  0  0
  1 18  1  0  0  0
  1 19  1  0  0  0
  2  3  2  0  0  0
  2  9  1  0  0  0
  2 13  1  0  0  0
  3  4  1  0  0  0
  3 20  1  0  0  0
  4  5  2  0  0  0
  4 21  1  0  0  0
  5 16  1  0  0  0
  5 15  1  0  0  0
  6 12  1  0  0  0
  6  8  2  0  0  0
  6 14  1  0  0  0
  7 10  1  0  0  0
  7 11  2  0  0  0
  7 22  1  0  0  0
  8 11  1  0  0  0
  8 23  1  0  0  0
  9 15  2  0  0  0
  9 24  1  0  0  0
 10 12  2  0  0  0
 10 25  1  0  0  0
 11 26  1  0  0  0
 12 27  1  0  0  0
 13 17  2  0  0  0
 14 16  1  0  0  0
 14 28  1  0  0  0
 14 29  1  0  0  0
 16 30  1  0  0  0
M  END
> <s_m_entry_id>
292

> <s_m_entry_name>
4ypw.1_ligand

> <s_m_subgroup_title>
Ligands

> <s_m_subgroupid>
Ligands

> <b_m_subgroup_collapsed>
0

$$$$
