4ypx_ligand
                    3D
 Schrodinger Suite 2021-1.
 17 17  0  0  1  0            999 V2000
  -21.1710   40.7010   -8.4360 C   0  0  0  0  0  0
  -20.0510   40.3120   -9.1350 C   0  0  0  0  0  0
  -19.8230   42.2800   -7.1850 C   0  0  0  0  0  0
  -21.0750   41.6990   -7.4440 C   0  0  0  0  0  0
  -18.8160   40.9470   -8.8130 C   0  0  0  0  0  0
  -22.2430   42.1540   -6.6630 C   0  0  0  0  0  0
  -18.6950   41.9410   -7.8290 N   0  0  0  0  0  0
  -17.6610   40.6080   -9.4690 N   0  0  0  0  0  0
  -22.1380   43.3520   -5.9970 N   0  0  0  0  0  0
  -23.2940   41.5080   -6.5870 O   0  0  0  0  0  0
  -22.1256   40.2419   -8.6467 H   0  0  0  0  0  0
  -20.1274   39.5503   -9.8969 H   0  0  0  0  0  0
  -19.7994   43.0401   -6.4181 H   0  0  0  0  0  0
  -16.7924   41.0654   -9.2314 H   0  0  0  0  0  0
  -17.6786   39.9008  -10.1899 H   0  0  0  0  0  0
  -22.9155   43.6968   -5.4522 H   0  0  0  0  0  0
  -21.2834   43.8874   -6.0525 H   0  0  0  0  0  0
  1  2  1  0  0  0
  1  4  2  0  0  0
  1 11  1  0  0  0
  2  5  2  0  0  0
  2 12  1  0  0  0
  3  7  2  0  0  0
  3  4  1  0  0  0
  3 13  1  0  0  0
  4  6  1  0  0  0
  5  8  1  0  0  0
  5  7  1  0  0  0
  6 10  2  0  0  0
  6  9  1  0  0  0
  8 14  1  0  0  0
  8 15  1  0  0  0
  9 16  1  0  0  0
  9 17  1  0  0  0
M  END
> <s_m_entry_id>
289

> <s_m_entry_name>
4ypx.1_ligand

> <s_m_subgroup_title>
Ligands

> <s_m_subgroupid>
Ligands

> <b_m_subgroup_collapsed>
0

$$$$
