4ypy_ligand
                    3D
 Schrodinger Suite 2021-1.
 18 19  0  0  1  0            999 V2000
  -21.7160   40.5960   -8.3990 C   0  0  0  0  0  0
  -20.5870   42.1680   -6.9550 C   0  0  0  0  0  0
  -22.8500   40.7530   -7.5980 C   0  0  0  0  0  0
  -21.7630   42.2630   -6.2100 C   0  0  0  0  0  0
  -19.1140   40.2400   -9.8580 C   0  0  0  0  0  0
  -17.3290   41.5830   -9.5640 C   0  0  0  0  0  0
  -20.5680   41.3190   -8.0640 C   0  0  0  0  0  0
  -19.3650   41.1760   -8.8500 C   0  0  0  0  0  0
  -22.8930   41.5680   -6.5130 N   0  0  0  0  0  0
  -18.2470   42.0200   -8.6660 N   0  0  0  0  0  0
  -17.8160   40.5020  -10.3060 N   0  0  0  0  0  0
  -21.7094   39.9390   -9.2561 H   0  0  0  0  0  0
  -19.7045   42.7321   -6.6916 H   0  0  0  0  0  0
  -23.7544   40.2102   -7.8300 H   0  0  0  0  0  0
  -21.8049   42.9116   -5.3474 H   0  0  0  0  0  0
  -19.6866   39.4385  -10.3009 H   0  0  0  0  0  0
  -16.3338   41.9598   -9.7482 H   0  0  0  0  0  0
  -17.4125   39.9396  -11.0415 H   0  0  0  0  0  0
  1  7  2  0  0  0
  1  3  1  0  0  0
  1 12  1  0  0  0
  2  7  1  0  0  0
  2  4  2  0  0  0
  2 13  1  0  0  0
  3  9  2  0  0  0
  3 14  1  0  0  0
  4  9  1  0  0  0
  4 15  1  0  0  0
  5 11  1  0  0  0
  5  8  2  0  0  0
  5 16  1  0  0  0
  6 11  1  0  0  0
  6 10  2  0  0  0
  6 17  1  0  0  0
  7  8  1  0  0  0
  8 10  1  0  0  0
 11 18  1  0  0  0
M  END
> <s_m_entry_id>
286

> <s_m_entry_name>
4ypy.1_ligand

> <s_m_subgroup_title>
Ligands

> <s_m_subgroupid>
Ligands

> <b_m_subgroup_collapsed>
0

$$$$
