4ypz_ligand
                    3D
 Schrodinger Suite 2021-1.
 18 19  0  0  1  0            999 V2000
  -21.7620   40.3050   -8.6110 C   0  0  0  0  0  0
  -20.5350   41.9400   -7.3140 C   0  0  0  0  0  0
  -22.8760   40.5760   -7.8120 C   0  0  0  0  0  0
  -21.6960   42.1480   -6.5670 C   0  0  0  0  0  0
  -17.9690   39.8000  -10.5800 C   0  0  0  0  0  0
  -17.3270   40.8370   -9.9050 C   0  0  0  0  0  0
  -20.5830   41.0000   -8.3440 C   0  0  0  0  0  0
  -19.3740   40.7520   -9.1160 C   0  0  0  0  0  0
  -22.8590   41.4800   -6.7960 N   0  0  0  0  0  0
  -19.2720   39.7520  -10.0730 N   0  0  0  0  0  0
  -18.1940   41.4380   -8.9910 N   0  0  0  0  0  0
  -21.7936   39.5838   -9.4143 H   0  0  0  0  0  0
  -19.6200   42.4788   -7.1168 H   0  0  0  0  0  0
  -23.8064   40.0569   -7.9887 H   0  0  0  0  0  0
  -21.6986   42.8684   -5.7624 H   0  0  0  0  0  0
  -17.6615   39.1033  -11.3458 H   0  0  0  0  0  0
  -16.2961   41.0697  -10.1277 H   0  0  0  0  0  0
  -17.8739   42.2100   -8.4238 H   0  0  0  0  0  0
  1  7  2  0  0  0
  1  3  1  0  0  0
  1 12  1  0  0  0
  2  7  1  0  0  0
  2  4  2  0  0  0
  2 13  1  0  0  0
  3  9  2  0  0  0
  3 14  1  0  0  0
  4  9  1  0  0  0
  4 15  1  0  0  0
  5 10  1  0  0  0
  5  6  2  0  0  0
  5 16  1  0  0  0
  6 11  1  0  0  0
  6 17  1  0  0  0
  7  8  1  0  0  0
  8 10  2  0  0  0
  8 11  1  0  0  0
 11 18  1  0  0  0
M  END
> <s_m_entry_id>
283

> <s_m_entry_name>
4ypz.1_ligand

> <s_m_subgroup_title>
Ligands

> <s_m_subgroupid>
Ligands

> <b_m_subgroup_collapsed>
0

$$$$
