4yq0_ligand
                    3D
 Schrodinger Suite 2021-1.
 26 27  0  0  1  0            999 V2000
  -16.7160   40.1370  -11.2400 C   0  0  0  0  0  0
  -19.1340   40.1340  -11.4310 C   0  0  0  0  0  0
  -16.5970   39.8340  -12.5900 C   0  0  0  0  0  0
  -19.0220   39.8260  -12.8120 C   0  0  0  0  0  0
  -17.9620   40.2930  -10.6640 C   0  0  0  0  0  0
  -17.7530   39.7000  -13.3410 C   0  0  0  0  0  0
  -21.2870   41.5230   -7.5790 C   0  0  0  0  0  0
  -22.0650   42.4010   -6.6900 C   0  0  0  0  0  0
  -19.8690   41.6640   -7.9140 C   0  0  0  0  0  0
  -18.0150   40.6600   -9.2070 C   0  0  0  0  0  0
  -22.1170   40.5430   -7.9980 N   0  0  0  0  0  0
  -23.3170   41.8720   -6.6370 N   0  0  0  0  0  0
  -21.6110   43.5090   -6.0610 N   0  0  0  0  0  0
  -19.4030   40.6820   -8.7500 N   0  0  0  0  0  0
  -19.1650   42.5750   -7.4640 O   0  0  0  0  0  0
  -23.2970   40.7570   -7.4430 O   0  0  0  0  0  0
  -17.5370   39.3960  -15.0360 Cl  0  0  0  0  0  0
  -15.8306   40.2524  -10.6324 H   0  0  0  0  0  0
  -20.1090   40.2439  -10.9796 H   0  0  0  0  0  0
  -15.6192   39.7084  -13.0311 H   0  0  0  0  0  0
  -19.9118   39.6986  -13.4107 H   0  0  0  0  0  0
  -17.5701   41.6448   -9.0642 H   0  0  0  0  0  0
  -17.4535   39.9273   -8.6274 H   0  0  0  0  0  0
  -22.2309   44.0437   -5.4695 H   0  0  0  0  0  0
  -20.6521   43.8017   -6.1828 H   0  0  0  0  0  0
  -20.0239   39.9503   -9.0649 H   0  0  0  0  0  0
  1  3  1  0  0  0
  1  5  2  0  0  0
  1 18  1  0  0  0
  2  4  2  0  0  0
  2  5  1  0  0  0
  2 19  1  0  0  0
  3  6  2  0  0  0
  3 20  1  0  0  0
  4  6  1  0  0  0
  4 21  1  0  0  0
  5 10  1  0  0  0
  6 17  1  0  0  0
  7 11  2  0  0  0
  7  9  1  0  0  0
  7  8  1  0  0  0
  8 12  2  0  0  0
  8 13  1  0  0  0
  9 14  1  0  0  0
  9 15  2  0  0  0
 10 14  1  0  0  0
 10 22  1  0  0  0
 10 23  1  0  0  0
 11 16  1  0  0  0
 12 16  1  0  0  0
 13 24  1  0  0  0
 13 25  1  0  0  0
 14 26  1  0  0  0
M  END
> <s_m_entry_id>
280

> <s_m_entry_name>
4yq0.1_ligand

> <s_m_subgroup_title>
Ligands

> <s_m_subgroupid>
Ligands

> <b_m_subgroup_collapsed>
0

$$$$
