4yq1_ligand
                    3D
 Schrodinger Suite 2021-1.
 63 66  0  0  1  0            999 V2000
   43.9570    6.2230    8.7160 N   0  0  0  0  0  0
   49.6860    8.7510    7.8270 C   0  0  0  0  0  0
   50.1020    9.5790    8.8740 C   0  0  0  0  0  0
   49.1960   10.0510    9.8260 C   0  0  0  0  0  0
   47.8580    9.7090    9.7380 C   0  0  0  0  0  0
   47.4380    8.8990    8.6900 C   0  0  0  0  0  0
   46.0010    8.5860    8.5290 C   0  0  0  0  0  0
   41.7400    6.9210    9.6080 C   0  0  0  0  0  0
   41.4470    6.8860   12.1030 C   0  0  0  0  0  0
   43.7220    6.4960   11.1340 C   0  0  0  0  0  0
   45.2460    5.0600    6.5700 C   0  0  0  0  0  0
   46.0950    4.4460    5.5930 C   0  0  0  0  0  0
   46.2570    3.0890    5.5160 C   0  0  0  0  0  0
   44.1280    1.7910    8.1280 C   0  0  0  0  0  0
   48.3330    8.4100    7.7380 C   0  0  0  0  0  0
   44.6750    2.8650    7.4260 C   0  0  0  0  0  0
   44.5690    4.2730    7.4710 C   0  0  0  0  0  0
   45.5400    2.2630    6.4340 C   0  0  0  0  0  0
   43.7750    4.8710    8.5600 C   0  0  0  0  0  0
   40.9840    7.5090   10.7940 C   0  0  0  0  0  0
   42.9320    7.0940   12.2940 C   0  0  0  0  0  0
   43.2700    7.0190    9.7590 C   0  0  0  0  0  0
   50.4770    6.6730    6.6020 C   0  0  0  0  0  0
   52.0490    8.4410    7.2680 C   0  0  0  0  0  0
   50.3970    8.8930    5.4660 C   0  0  0  0  0  0
   43.7350    8.5130    9.5480 C   0  0  0  0  0  0
   50.6270    8.1890    6.8080 C   0  0  0  0  0  0
   45.4850    0.9120    6.5730 N   0  0  0  0  0  0
   45.1870    8.7680    9.6630 N   0  0  0  0  0  0
   45.5310    8.1800    7.4660 O   0  0  0  0  0  0
   43.0290    4.1600    9.2410 O   0  0  0  0  0  0
   44.6350    0.6440    7.5990 O   0  0  0  0  0  0
   44.5848    6.7222    8.1022 H   0  0  0  0  0  0
   51.1403    9.8644    8.9569 H   0  0  0  0  0  0
   49.5394   10.6833   10.6314 H   0  0  0  0  0  0
   47.1584   10.0708   10.4770 H   0  0  0  0  0  0
   41.4551    5.8769    9.4787 H   0  0  0  0  0  0
   41.4330    7.4303    8.6945 H   0  0  0  0  0  0
   41.2282    5.8182   12.0942 H   0  0  0  0  0  0
   40.9069    7.3417   12.9329 H   0  0  0  0  0  0
   44.7824    6.7077   11.2710 H   0  0  0  0  0  0
   43.6311    5.4100   11.1559 H   0  0  0  0  0  0
   45.1411    6.1346    6.5953 H   0  0  0  0  0  0
   46.6337    5.0580    4.8847 H   0  0  0  0  0  0
   46.9158    2.6651    4.7725 H   0  0  0  0  0  0
   43.4317    1.9710    8.9337 H   0  0  0  0  0  0
   47.9882    7.7729    6.9370 H   0  0  0  0  0  0
   39.9158    7.3335   10.6665 H   0  0  0  0  0  0
   41.1443    8.5866   10.8283 H   0  0  0  0  0  0
   43.2469    6.6263   13.2268 H   0  0  0  0  0  0
   43.1428    8.1611   12.3647 H   0  0  0  0  0  0
   51.1903    6.3357    5.8500 H   0  0  0  0  0  0
   50.6702    6.1571    7.5425 H   0  0  0  0  0  0
   49.4640    6.4498    6.2672 H   0  0  0  0  0  0
   52.7459    8.0362    6.5341 H   0  0  0  0  0  0
   52.2133    9.5136    7.3713 H   0  0  0  0  0  0
   52.2119    7.9547    8.2298 H   0  0  0  0  0  0
   51.0804    8.4869    4.7203 H   0  0  0  0  0  0
   49.3689    8.7317    5.1420 H   0  0  0  0  0  0
   50.5780    9.9618    5.5801 H   0  0  0  0  0  0
   43.2006    9.1576   10.2458 H   0  0  0  0  0  0
   43.3841    8.8649    8.5779 H   0  0  0  0  0  0
   45.5969    9.0679   10.5360 H   0  0  0  0  0  0
  1 19  1  0  0  0
  1 22  1  0  0  0
  1 33  1  0  0  0
  2 27  1  0  0  0
  2 15  1  0  0  0
  2  3  2  0  0  0
  3  4  1  0  0  0
  3 34  1  0  0  0
  4  5  2  0  0  0
  4 35  1  0  0  0
  5  6  1  0  0  0
  5 36  1  0  0  0
  6 15  2  0  0  0
  6  7  1  0  0  0
  7 30  2  0  0  0
  7 29  1  0  0  0
  8 22  1  0  0  0
  8 20  1  0  0  0
  8 37  1  0  0  0
  8 38  1  0  0  0
  9 20  1  0  0  0
  9 21  1  0  0  0
  9 39  1  0  0  0
  9 40  1  0  0  0
 10 22  1  0  0  0
 10 21  1  0  0  0
 10 41  1  0  0  0
 10 42  1  0  0  0
 11 12  1  0  0  0
 11 17  2  0  0  0
 11 43  1  0  0  0
 12 13  2  0  0  0
 12 44  1  0  0  0
 13 18  1  0  0  0
 13 45  1  0  0  0
 14 16  2  0  0  0
 14 32  1  0  0  0
 14 46  1  0  0  0
 15 47  1  0  0  0
 16 18  1  0  0  0
 16 17  1  0  0  0
 17 19  1  0  0  0
 18 28  2  0  0  0
 19 31  2  0  0  0
 20 48  1  0  0  0
 20 49  1  0  0  0
 21 50  1  0  0  0
 21 51  1  0  0  0
 22 26  1  0  0  0
 23 27  1  0  0  0
 23 52  1  0  0  0
 23 53  1  0  0  0
 23 54  1  0  0  0
 24 27  1  0  0  0
 24 55  1  0  0  0
 24 56  1  0  0  0
 24 57  1  0  0  0
 25 27  1  0  0  0
 25 58  1  0  0  0
 25 59  1  0  0  0
 25 60  1  0  0  0
 26 29  1  0  0  0
 26 61  1  0  0  0
 26 62  1  0  0  0
 28 32  1  0  0  0
 29 63  1  0  0  0
M  END
> <s_m_entry_id>
277

> <s_m_entry_name>
4yq1.1_ligand

> <s_m_subgroup_title>
Ligands

> <s_m_subgroupid>
Ligands

> <b_m_subgroup_collapsed>
0

$$$$
