4yq2_ligand
                    3D
 Schrodinger Suite 2021-1.
 60 63  0  0  1  0            999 V2000
  -15.6680   47.9450   -9.8950 C   0  0  0  0  0  0
  -19.1010   42.5730   -5.6600 C   0  0  0  0  0  0
  -15.3040   46.6340   -9.7280 C   0  0  0  0  0  0
  -18.1600   42.1960   -6.6080 C   0  0  0  0  0  0
  -16.5270   48.5500   -9.0090 C   0  0  0  0  0  0
  -20.3290   41.9450   -5.6110 C   0  0  0  0  0  0
  -16.6740   46.5430   -7.7550 C   0  0  0  0  0  0
  -20.2560   39.4400   -8.2790 C   0  0  0  0  0  0
  -19.6450   40.5450   -7.4740 C   0  0  0  0  0  0
  -15.8160   45.9420   -8.6600 C   0  0  0  0  0  0
  -18.4130   41.1870   -7.5240 C   0  0  0  0  0  0
  -17.0380   47.8610   -7.9310 C   0  0  0  0  0  0
  -20.6020   40.9420   -6.5140 C   0  0  0  0  0  0
  -15.4190   44.5320   -8.4750 C   0  0  0  0  0  0
  -17.4300   40.7760   -8.5260 C   0  0  0  0  0  0
  -15.3890   40.3630  -11.8860 C   0  0  0  0  0  0
  -14.3840   39.6490  -11.0400 C   0  0  0  0  0  0
  -16.0490   41.4270  -11.0370 C   0  0  0  0  0  0
  -14.6570   40.0450   -9.6100 C   0  0  0  0  0  0
  -15.3190   41.4270   -9.6860 C   0  0  0  0  0  0
  -19.3610   48.0720   -7.2310 C   0  0  0  0  0  0
  -17.9220   50.0520   -7.2270 C   0  0  0  0  0  0
  -17.5900   48.2830   -5.5440 C   0  0  0  0  0  0
  -14.3210   42.5710   -9.5630 C   0  0  0  0  0  0
  -17.9670   48.5600   -6.9840 C   0  0  0  0  0  0
  -21.7150   40.2010   -6.6560 N   0  0  0  0  0  0
  -16.2910   41.5310   -8.5830 N   0  0  0  0  0  0
  -14.9450   43.8850   -9.6080 N   0  0  0  0  0  0
  -15.5280   44.0440   -7.3590 O   0  0  0  0  0  0
  -17.6770   39.8690   -9.3030 O   0  0  0  0  0  0
  -21.5710   39.2640   -7.7240 O   0  0  0  0  0  0
  -15.2792   48.5115  -10.7283 H   0  0  0  0  0  0
  -18.8736   43.3606   -4.9569 H   0  0  0  0  0  0
  -14.6279   46.1678  -10.4293 H   0  0  0  0  0  0
  -17.2017   42.6927   -6.6449 H   0  0  0  0  0  0
  -16.8117   49.5819   -9.1520 H   0  0  0  0  0  0
  -21.0585   42.2424   -4.8722 H   0  0  0  0  0  0
  -17.0549   45.9796   -6.9160 H   0  0  0  0  0  0
  -19.6927   38.9772   -9.0758 H   0  0  0  0  0  0
  -16.1423   39.6545  -12.2304 H   0  0  0  0  0  0
  -14.8844   40.8334  -12.7299 H   0  0  0  0  0  0
  -13.3808   39.9704  -11.3199 H   0  0  0  0  0  0
  -14.5170   38.5727  -11.1498 H   0  0  0  0  0  0
  -17.0968   41.1692  -10.8828 H   0  0  0  0  0  0
  -15.9271   42.3991  -11.5148 H   0  0  0  0  0  0
  -13.7134   40.1251   -9.0704 H   0  0  0  0  0  0
  -15.3532   39.3344   -9.1645 H   0  0  0  0  0  0
  -20.0480   48.5725   -6.5486 H   0  0  0  0  0  0
  -19.6467   48.2922   -8.2596 H   0  0  0  0  0  0
  -19.4045   46.9956   -7.0649 H   0  0  0  0  0  0
  -18.5991   50.5538   -6.5358 H   0  0  0  0  0  0
  -16.9068   50.4159   -7.0689 H   0  0  0  0  0  0
  -18.2276   50.2631   -8.2518 H   0  0  0  0  0  0
  -18.2811   48.8028   -4.8805 H   0  0  0  0  0  0
  -17.6419   47.2109   -5.3541 H   0  0  0  0  0  0
  -16.5753   48.6355   -5.3593 H   0  0  0  0  0  0
  -13.5819   42.4938  -10.3604 H   0  0  0  0  0  0
  -13.7638   42.4667   -8.6320 H   0  0  0  0  0  0
  -16.0874   42.1942   -7.8489 H   0  0  0  0  0  0
  -15.0262   44.3264  -10.5128 H   0  0  0  0  0  0
  1  3  2  0  0  0
  1  5  1  0  0  0
  1 32  1  0  0  0
  2  4  1  0  0  0
  2  6  2  0  0  0
  2 33  1  0  0  0
  3 10  1  0  0  0
  3 34  1  0  0  0
  4 11  2  0  0  0
  4 35  1  0  0  0
  5 12  2  0  0  0
  5 36  1  0  0  0
  6 13  1  0  0  0
  6 37  1  0  0  0
  7 10  2  0  0  0
  7 12  1  0  0  0
  7 38  1  0  0  0
  8 31  1  0  0  0
  8  9  2  0  0  0
  8 39  1  0  0  0
  9 11  1  0  0  0
  9 13  1  0  0  0
 10 14  1  0  0  0
 11 15  1  0  0  0
 12 25  1  0  0  0
 13 26  2  0  0  0
 14 28  1  0  0  0
 14 29  2  0  0  0
 15 30  2  0  0  0
 15 27  1  0  0  0
 16 17  1  0  0  0
 16 18  1  0  0  0
 16 40  1  0  0  0
 16 41  1  0  0  0
 17 19  1  0  0  0
 17 42  1  0  0  0
 17 43  1  0  0  0
 18 20  1  0  0  0
 18 44  1  0  0  0
 18 45  1  0  0  0
 19 20  1  0  0  0
 19 46  1  0  0  0
 19 47  1  0  0  0
 20 24  1  0  0  0
 20 27  1  0  0  0
 21 25  1  0  0  0
 21 48  1  0  0  0
 21 49  1  0  0  0
 21 50  1  0  0  0
 22 25  1  0  0  0
 22 51  1  0  0  0
 22 52  1  0  0  0
 22 53  1  0  0  0
 23 25  1  0  0  0
 23 54  1  0  0  0
 23 55  1  0  0  0
 23 56  1  0  0  0
 24 28  1  0  0  0
 24 57  1  0  0  0
 24 58  1  0  0  0
 26 31  1  0  0  0
 27 59  1  0  0  0
 28 60  1  0  0  0
M  END
> <s_m_entry_id>
274

> <s_m_entry_name>
4yq2.1_ligand

> <s_m_subgroup_title>
Ligands

> <s_m_subgroupid>
Ligands

> <b_m_subgroup_collapsed>
0

$$$$
