4yq3_ligand
                    3D
 Schrodinger Suite 2021-1.
 51 54  0  0  1  0            999 V2000
  -16.1630   47.6870   -9.9510 C   0  0  0  0  0  0
  -18.9850   42.2390   -5.6520 C   0  0  0  0  0  0
  -15.6380   46.4060   -9.8510 C   0  0  0  0  0  0
  -18.1020   41.8280   -6.7150 C   0  0  0  0  0  0
  -17.0640   48.1550   -9.0000 C   0  0  0  0  0  0
  -20.2360   41.7340   -5.5140 C   0  0  0  0  0  0
  -16.9210   46.0600   -7.8300 C   0  0  0  0  0  0
  -20.5210   39.3900   -8.2280 C   0  0  0  0  0  0
  -19.7870   40.3330   -7.5330 C   0  0  0  0  0  0
  -16.0230   45.6010   -8.7870 C   0  0  0  0  0  0
  -18.4920   40.9060   -7.6320 C   0  0  0  0  0  0
  -17.4460   47.3400   -7.9380 C   0  0  0  0  0  0
  -20.6680   40.7550   -6.4640 C   0  0  0  0  0  0
  -15.4870   44.2300   -8.6210 C   0  0  0  0  0  0
  -17.6050   40.5150   -8.7520 C   0  0  0  0  0  0
  -15.8760   39.9110  -12.0050 C   0  0  0  0  0  0
  -14.7370   39.2520  -11.3000 C   0  0  0  0  0  0
  -16.0500   41.2710  -11.3480 C   0  0  0  0  0  0
  -14.7850   39.7540   -9.8650 C   0  0  0  0  0  0
  -15.4460   41.1510   -9.9270 C   0  0  0  0  0  0
  -18.4170   47.8100   -6.9120 C   0  0  0  0  0  0
  -14.3880   42.2770   -9.6820 C   0  0  0  0  0  0
  -21.8390   40.0750   -6.5700 N   0  0  0  0  0  0
  -16.4790   41.3170   -8.8840 N   0  0  0  0  0  0
  -14.9520   43.6360   -9.7580 N   0  0  0  0  0  0
  -15.5130   43.6380   -7.5410 O   0  0  0  0  0  0
  -17.8710   39.5680   -9.4740 O   0  0  0  0  0  0
  -21.7360   39.2640   -7.6260 O   0  0  0  0  0  0
  -15.8725   48.3272  -10.7709 H   0  0  0  0  0  0
  -18.6570   42.9732   -4.9310 H   0  0  0  0  0  0
  -14.9408   46.0486  -10.5943 H   0  0  0  0  0  0
  -17.1129   42.2550   -6.7908 H   0  0  0  0  0  0
  -17.4688   49.1527   -9.0846 H   0  0  0  0  0  0
  -20.8691   42.0727   -4.7073 H   0  0  0  0  0  0
  -17.2069   45.4212   -7.0074 H   0  0  0  0  0  0
  -20.0932   38.9014   -9.0909 H   0  0  0  0  0  0
  -15.6216   40.0465  -13.0562 H   0  0  0  0  0  0
  -16.7811   39.3209  -11.8612 H   0  0  0  0  0  0
  -13.7986   39.5610  -11.7605 H   0  0  0  0  0  0
  -14.8810   38.1716  -11.3106 H   0  0  0  0  0  0
  -17.1122   41.5033  -11.2717 H   0  0  0  0  0  0
  -15.4972   42.0204  -11.9145 H   0  0  0  0  0  0
  -13.7694   39.8508   -9.4812 H   0  0  0  0  0  0
  -15.4060   39.0858   -9.2683 H   0  0  0  0  0  0
  -18.5765   47.0233   -6.1746 H   0  0  0  0  0  0
  -18.0221   48.6970   -6.4166 H   0  0  0  0  0  0
  -19.3643   48.0544   -7.3925 H   0  0  0  0  0  0
  -13.5808   42.1791  -10.4079 H   0  0  0  0  0  0
  -13.9243   42.1317   -8.7063 H   0  0  0  0  0  0
  -16.3224   42.0779   -8.2385 H   0  0  0  0  0  0
  -14.9500   44.1359  -10.6356 H   0  0  0  0  0  0
  1  3  2  0  0  0
  1  5  1  0  0  0
  1 29  1  0  0  0
  2  4  1  0  0  0
  2  6  2  0  0  0
  2 30  1  0  0  0
  3 10  1  0  0  0
  3 31  1  0  0  0
  4 11  2  0  0  0
  4 32  1  0  0  0
  5 12  2  0  0  0
  5 33  1  0  0  0
  6 13  1  0  0  0
  6 34  1  0  0  0
  7 10  2  0  0  0
  7 12  1  0  0  0
  7 35  1  0  0  0
  8 28  1  0  0  0
  8  9  2  0  0  0
  8 36  1  0  0  0
  9 11  1  0  0  0
  9 13  1  0  0  0
 10 14  1  0  0  0
 11 15  1  0  0  0
 12 21  1  0  0  0
 13 23  2  0  0  0
 14 25  1  0  0  0
 14 26  2  0  0  0
 15 27  2  0  0  0
 15 24  1  0  0  0
 16 18  1  0  0  0
 16 17  1  0  0  0
 16 37  1  0  0  0
 16 38  1  0  0  0
 17 19  1  0  0  0
 17 39  1  0  0  0
 17 40  1  0  0  0
 18 20  1  0  0  0
 18 41  1  0  0  0
 18 42  1  0  0  0
 19 20  1  0  0  0
 19 43  1  0  0  0
 19 44  1  0  0  0
 20 22  1  0  0  0
 20 24  1  0  0  0
 21 45  1  0  0  0
 21 46  1  0  0  0
 21 47  1  0  0  0
 22 25  1  0  0  0
 22 48  1  0  0  0
 22 49  1  0  0  0
 23 28  1  0  0  0
 24 50  1  0  0  0
 25 51  1  0  0  0
M  END
> <s_m_entry_id>
271

> <s_m_entry_name>
4yq3.1_ligand

> <s_m_subgroup_title>
Ligands

> <s_m_subgroupid>
Ligands

> <b_m_subgroup_collapsed>
0

$$$$
