4yq4_ligand
                    3D
 Schrodinger Suite 2021-1.
 31 32  0  0  1  0            999 V2000
  -19.6330   41.2170  -13.6100 C   0  0  0  0  0  0
  -21.1370   40.5190   -8.5210 C   0  0  0  0  0  0
  -19.2180   40.2760  -12.6570 C   0  0  0  0  0  0
  -18.9140   42.3870  -13.8160 C   0  0  0  0  0  0
  -20.0470   40.1030   -9.2710 C   0  0  0  0  0  0
  -17.3040   41.6440  -12.1020 C   0  0  0  0  0  0
  -19.6690   41.8510   -7.1390 C   0  0  0  0  0  0
  -20.9550   41.4050   -7.4540 C   0  0  0  0  0  0
  -18.0620   40.5030  -11.9000 C   0  0  0  0  0  0
  -17.7580   42.5880  -13.0650 C   0  0  0  0  0  0
  -18.7790   40.5960   -8.8750 C   0  0  0  0  0  0
  -22.1200   41.8700   -6.6970 C   0  0  0  0  0  0
  -17.6560   39.5460  -10.7950 C   0  0  0  0  0  0
  -18.5840   41.4670   -7.8050 N   0  0  0  0  0  0
  -21.9930   43.1030   -6.0750 N   0  0  0  0  0  0
  -17.6370   40.3130   -9.5390 N   0  0  0  0  0  0
  -23.1760   41.2310   -6.6200 O   0  0  0  0  0  0
  -17.0100   43.7050  -13.1810 O   0  0  0  0  0  0
  -20.5246   41.0223  -14.1876 H   0  0  0  0  0  0
  -22.1265   40.1588   -8.7608 H   0  0  0  0  0  0
  -19.7904   39.3729  -12.5050 H   0  0  0  0  0  0
  -19.2556   43.1100  -14.5419 H   0  0  0  0  0  0
  -20.1906   39.4366  -10.1087 H   0  0  0  0  0  0
  -16.3921   41.8282  -11.5534 H   0  0  0  0  0  0
  -19.5793   42.5393   -6.3116 H   0  0  0  0  0  0
  -16.6575   39.1593  -10.9989 H   0  0  0  0  0  0
  -18.3920   38.7455  -10.7200 H   0  0  0  0  0  0
  -22.7611   43.4791   -5.5377 H   0  0  0  0  0  0
  -21.1324   43.6249   -6.1593 H   0  0  0  0  0  0
  -16.7495   40.6291   -9.1749 H   0  0  0  0  0  0
  -16.2609   43.6526  -12.5829 H   0  0  0  0  0  0
  1  4  2  0  0  0
  1  3  1  0  0  0
  1 19  1  0  0  0
  2  5  1  0  0  0
  2  8  2  0  0  0
  2 20  1  0  0  0
  3  9  2  0  0  0
  3 21  1  0  0  0
  4 10  1  0  0  0
  4 22  1  0  0  0
  5 11  2  0  0  0
  5 23  1  0  0  0
  6 10  2  0  0  0
  6  9  1  0  0  0
  6 24  1  0  0  0
  7 14  2  0  0  0
  7  8  1  0  0  0
  7 25  1  0  0  0
  8 12  1  0  0  0
  9 13  1  0  0  0
 10 18  1  0  0  0
 11 16  1  0  0  0
 11 14  1  0  0  0
 12 17  2  0  0  0
 12 15  1  0  0  0
 13 16  1  0  0  0
 13 26  1  0  0  0
 13 27  1  0  0  0
 15 28  1  0  0  0
 15 29  1  0  0  0
 16 30  1  0  0  0
 18 31  1  0  0  0
M  END
> <s_m_entry_id>
268

> <s_m_entry_name>
4yq4.1_ligand

> <s_m_subgroup_title>
Ligands

> <s_m_subgroupid>
Ligands

> <b_m_subgroup_collapsed>
0

$$$$
