4yq5_ligand
                    3D
 Schrodinger Suite 2021-1.
 38 39  0  0  1  0            999 V2000
  -19.6180   41.6370  -13.5680 C   0  0  0  0  0  0
  -21.1520   40.6960   -8.4350 C   0  0  0  0  0  0
  -19.2450   40.6700  -12.6280 C   0  0  0  0  0  0
  -18.8470   42.7780  -13.7550 C   0  0  0  0  0  0
  -20.0560   40.2760   -9.1560 C   0  0  0  0  0  0
  -17.3000   41.9960  -12.0440 C   0  0  0  0  0  0
  -19.6880   42.0440   -7.0860 C   0  0  0  0  0  0
  -20.9830   41.6010   -7.3800 C   0  0  0  0  0  0
  -18.0860   40.8590  -11.8670 C   0  0  0  0  0  0
  -17.6820   42.9690  -12.9970 C   0  0  0  0  0  0
  -18.7650   40.7790   -8.7940 C   0  0  0  0  0  0
  -22.1480   42.0550   -6.6080 C   0  0  0  0  0  0
  -17.2490   45.1510  -14.1810 C   0  0  0  0  0  0
  -15.6580   44.3770  -12.4520 C   0  0  0  0  0  0
  -17.6640   39.8570  -10.8080 C   0  0  0  0  0  0
  -18.5880   41.6660   -7.7440 N   0  0  0  0  0  0
  -22.0170   43.2520   -5.8970 N   0  0  0  0  0  0
  -17.6150   40.5440   -9.5160 N   0  0  0  0  0  0
  -16.9020   44.1150  -13.1930 N   0  0  0  0  0  0
  -23.1980   41.4170   -6.5540 O   0  0  0  0  0  0
  -20.5150   41.4899  -14.1512 H   0  0  0  0  0  0
  -22.1360   40.3274   -8.6844 H   0  0  0  0  0  0
  -19.8501   39.7856  -12.4939 H   0  0  0  0  0  0
  -19.1447   43.5174  -14.4837 H   0  0  0  0  0  0
  -20.1814   39.5822   -9.9741 H   0  0  0  0  0  0
  -16.4035   42.1365  -11.4584 H   0  0  0  0  0  0
  -19.6128   42.7394   -6.2631 H   0  0  0  0  0  0
  -16.5008   45.9433  -14.1555 H   0  0  0  0  0  0
  -17.2759   44.7093  -15.1771 H   0  0  0  0  0  0
  -18.2274   45.5681  -13.9425 H   0  0  0  0  0  0
  -15.2335   45.3265  -12.7779 H   0  0  0  0  0  0
  -15.8732   44.4232  -11.3845 H   0  0  0  0  0  0
  -14.9445   43.5756  -12.6439 H   0  0  0  0  0  0
  -16.6750   39.4680  -11.0500 H   0  0  0  0  0  0
  -18.3938   39.0487  -10.7618 H   0  0  0  0  0  0
  -22.7916   43.6031   -5.3522 H   0  0  0  0  0  0
  -21.1478   43.7654   -5.9283 H   0  0  0  0  0  0
  -16.7215   40.8470   -9.1554 H   0  0  0  0  0  0
  1  4  1  0  0  0
  1  3  2  0  0  0
  1 21  1  0  0  0
  2  5  1  0  0  0
  2  8  2  0  0  0
  2 22  1  0  0  0
  3  9  1  0  0  0
  3 23  1  0  0  0
  4 10  2  0  0  0
  4 24  1  0  0  0
  5 11  2  0  0  0
  5 25  1  0  0  0
  6 10  1  0  0  0
  6  9  2  0  0  0
  6 26  1  0  0  0
  7 16  2  0  0  0
  7  8  1  0  0  0
  7 27  1  0  0  0
  8 12  1  0  0  0
  9 15  1  0  0  0
 10 19  1  0  0  0
 11 18  1  0  0  0
 11 16  1  0  0  0
 12 20  2  0  0  0
 12 17  1  0  0  0
 13 19  1  0  0  0
 13 28  1  0  0  0
 13 29  1  0  0  0
 13 30  1  0  0  0
 14 19  1  0  0  0
 14 31  1  0  0  0
 14 32  1  0  0  0
 14 33  1  0  0  0
 15 18  1  0  0  0
 15 34  1  0  0  0
 15 35  1  0  0  0
 17 36  1  0  0  0
 17 37  1  0  0  0
 18 38  1  0  0  0
M  END
> <s_m_entry_id>
265

> <s_m_entry_name>
4yq5.1_ligand

> <s_m_subgroup_title>
Ligands

> <s_m_subgroupid>
Ligands

> <b_m_subgroup_collapsed>
0

$$$$
