4yq6_ligand
                    3D
 Schrodinger Suite 2021-1.
 34 35  0  0  1  0            999 V2000
  -19.7140   40.9180  -13.5370 C   0  0  0  0  0  0
  -19.0530   42.0960  -13.8720 C   0  0  0  0  0  0
  -21.0550   40.4920   -8.4610 C   0  0  0  0  0  0
  -19.2320   40.1160  -12.5170 C   0  0  0  0  0  0
  -17.9070   42.4730  -13.1850 C   0  0  0  0  0  0
  -19.8850   40.0920   -9.1210 C   0  0  0  0  0  0
  -19.7120   42.0280   -7.1740 C   0  0  0  0  0  0
  -20.9580   41.4790   -7.4740 C   0  0  0  0  0  0
  -18.0880   40.4910  -11.8310 C   0  0  0  0  0  0
  -17.4260   41.6720  -12.1580 C   0  0  0  0  0  0
  -18.6760   40.6880   -8.7700 C   0  0  0  0  0  0
  -22.1530   41.9600   -6.7260 C   0  0  0  0  0  0
  -15.7490   43.2980  -11.6020 C   0  0  0  0  0  0
  -17.5740   39.6320  -10.7250 C   0  0  0  0  0  0
  -18.6050   41.6300   -7.8170 N   0  0  0  0  0  0
  -22.1140   43.2120   -6.0160 N   0  0  0  0  0  0
  -17.4660   40.2750   -9.4410 N   0  0  0  0  0  0
  -23.1680   41.2760   -6.7160 O   0  0  0  0  0  0
  -16.2900   42.0270  -11.4610 O   0  0  0  0  0  0
  -20.6053   40.6276  -14.0733 H   0  0  0  0  0  0
  -19.4313   42.7198  -14.6684 H   0  0  0  0  0  0
  -22.0016   40.0404   -8.7186 H   0  0  0  0  0  0
  -19.7472   39.2025  -12.2590 H   0  0  0  0  0  0
  -17.3940   43.3856  -13.4503 H   0  0  0  0  0  0
  -19.9303   39.3331   -9.8880 H   0  0  0  0  0  0
  -19.6483   42.7869   -6.4082 H   0  0  0  0  0  0
  -14.8610   43.3869  -10.9762 H   0  0  0  0  0  0
  -15.4765   43.4639  -12.6443 H   0  0  0  0  0  0
  -16.4843   44.0424  -11.2964 H   0  0  0  0  0  0
  -16.6029   39.2249  -11.0067 H   0  0  0  0  0  0
  -18.2046   38.7477  -10.6330 H   0  0  0  0  0  0
  -22.9281   43.5317   -5.5110 H   0  0  0  0  0  0
  -21.2725   43.7705   -6.0230 H   0  0  0  0  0  0
  -16.5679   40.4389   -9.0090 H   0  0  0  0  0  0
  1  2  2  0  0  0
  1  4  1  0  0  0
  1 20  1  0  0  0
  2  5  1  0  0  0
  2 21  1  0  0  0
  3  6  1  0  0  0
  3  8  2  0  0  0
  3 22  1  0  0  0
  4  9  2  0  0  0
  4 23  1  0  0  0
  5 10  2  0  0  0
  5 24  1  0  0  0
  6 11  2  0  0  0
  6 25  1  0  0  0
  7 15  2  0  0  0
  7  8  1  0  0  0
  7 26  1  0  0  0
  8 12  1  0  0  0
  9 10  1  0  0  0
  9 14  1  0  0  0
 10 19  1  0  0  0
 11 17  1  0  0  0
 11 15  1  0  0  0
 12 18  2  0  0  0
 12 16  1  0  0  0
 13 19  1  0  0  0
 13 27  1  0  0  0
 13 28  1  0  0  0
 13 29  1  0  0  0
 14 17  1  0  0  0
 14 30  1  0  0  0
 14 31  1  0  0  0
 16 32  1  0  0  0
 16 33  1  0  0  0
 17 34  1  0  0  0
M  END
> <s_m_entry_id>
262

> <s_m_entry_name>
4yq6.1_ligand

> <s_m_subgroup_title>
Ligands

> <s_m_subgroupid>
Ligands

> <b_m_subgroup_collapsed>
0

$$$$
