4yq7_ligand
                    3D
 Schrodinger Suite 2021-1.
 38 39  0  0  1  0            999 V2000
  -20.3940   40.8330  -13.3910 C   0  0  0  0  0  0
  -19.8550   42.0650  -13.8710 C   0  0  0  0  0  0
  -21.3590   40.7970   -8.3680 C   0  0  0  0  0  0
  -19.7360   40.0630  -12.4270 C   0  0  0  0  0  0
  -18.6530   42.5450  -13.3620 C   0  0  0  0  0  0
  -20.2430   40.3910   -9.1070 C   0  0  0  0  0  0
  -19.8610   42.3300   -7.1960 C   0  0  0  0  0  0
  -21.1230   41.7950   -7.4080 C   0  0  0  0  0  0
  -18.5530   40.5470  -11.9090 C   0  0  0  0  0  0
  -17.9960   41.7900  -12.3670 C   0  0  0  0  0  0
  -18.9870   40.9930   -8.8620 C   0  0  0  0  0  0
  -22.2540   42.2920   -6.5680 C   0  0  0  0  0  0
  -16.8980   43.6990  -11.3270 C   0  0  0  0  0  0
  -15.4720   41.7140  -11.8050 C   0  0  0  0  0  0
  -17.8590   39.7790  -10.7640 C   0  0  0  0  0  0
  -18.8200   41.9290   -7.9180 N   0  0  0  0  0  0
  -22.0530   43.5110   -5.8390 N   0  0  0  0  0  0
  -17.8010   40.6210   -9.5740 N   0  0  0  0  0  0
  -16.7830   42.3720  -11.8270 N   0  0  0  0  0  0
  -23.3110   41.6880   -6.5360 O   0  0  0  0  0  0
  -21.3368   40.4707  -13.7733 H   0  0  0  0  0  0
  -20.3808   42.6251  -14.6301 H   0  0  0  0  0  0
  -22.3229   40.3470   -8.5544 H   0  0  0  0  0  0
  -20.1565   39.1202  -12.1098 H   0  0  0  0  0  0
  -18.2441   43.4748  -13.7289 H   0  0  0  0  0  0
  -20.3438   39.6224   -9.8590 H   0  0  0  0  0  0
  -19.7307   43.0822   -6.4320 H   0  0  0  0  0  0
  -15.9308   44.0306  -10.9493 H   0  0  0  0  0  0
  -17.2215   44.3631  -12.1285 H   0  0  0  0  0  0
  -17.6299   43.7214  -10.5196 H   0  0  0  0  0  0
  -14.7400   42.3766  -11.3432 H   0  0  0  0  0  0
  -15.5382   40.7900  -11.2305 H   0  0  0  0  0  0
  -15.1623   41.4857  -12.8248 H   0  0  0  0  0  0
  -16.8474   39.5100  -11.0681 H   0  0  0  0  0  0
  -18.4225   38.8731  -10.5407 H   0  0  0  0  0  0
  -22.7930   43.8807   -5.2595 H   0  0  0  0  0  0
  -21.1715   43.9995   -5.9052 H   0  0  0  0  0  0
  -16.8984   40.9427   -9.2547 H   0  0  0  0  0  0
  1  2  2  0  0  0
  1  4  1  0  0  0
  1 21  1  0  0  0
  2  5  1  0  0  0
  2 22  1  0  0  0
  3  6  1  0  0  0
  3  8  2  0  0  0
  3 23  1  0  0  0
  4  9  2  0  0  0
  4 24  1  0  0  0
  5 10  2  0  0  0
  5 25  1  0  0  0
  6 11  2  0  0  0
  6 26  1  0  0  0
  7 16  2  0  0  0
  7  8  1  0  0  0
  7 27  1  0  0  0
  8 12  1  0  0  0
  9 10  1  0  0  0
  9 15  1  0  0  0
 10 19  1  0  0  0
 11 18  1  0  0  0
 11 16  1  0  0  0
 12 20  2  0  0  0
 12 17  1  0  0  0
 13 19  1  0  0  0
 13 28  1  0  0  0
 13 29  1  0  0  0
 13 30  1  0  0  0
 14 19  1  0  0  0
 14 31  1  0  0  0
 14 32  1  0  0  0
 14 33  1  0  0  0
 15 18  1  0  0  0
 15 34  1  0  0  0
 15 35  1  0  0  0
 17 36  1  0  0  0
 17 37  1  0  0  0
 18 38  1  0  0  0
M  END
> <s_m_entry_id>
259

> <s_m_entry_name>
4yq7.1_ligand

> <s_m_subgroup_title>
Ligands

> <s_m_subgroupid>
Ligands

> <b_m_subgroup_collapsed>
0

$$$$
