4yq8_ligand2
                    3D
 Schrodinger Suite 2021-1.
 27 28  0  0  1  0            999 V2000
  -20.9210   41.2590   -7.8450 C   0  0  0  0  0  0
  -21.7690   41.9570   -6.8780 C   0  0  0  0  0  0
  -19.5360   41.6080   -8.1810 C   0  0  0  0  0  0
  -17.6230   42.2730  -10.9330 C   0  0  0  0  0  0
  -16.3180   41.9190  -11.6570 C   0  0  0  0  0  0
  -17.0350   40.0260  -10.2950 C   0  0  0  0  0  0
  -17.6730   41.3150   -9.7680 C   0  0  2  0  0  0
  -16.0120   40.4640  -11.3390 C   0  0  1  0  0  0
  -21.6350   40.2400   -8.3420 N   0  0  0  0  0  0
  -22.9650   41.2910   -6.8560 N   0  0  0  0  0  0
  -21.4070   43.0470   -6.1580 N   0  0  0  0  0  0
  -19.0500   41.0360   -9.3370 N   0  0  0  0  0  0
  -18.8800   42.3550   -7.4710 O   0  0  0  0  0  0
  -22.8340   40.2710   -7.7500 O   0  0  0  0  0  0
  -16.1700   39.6740  -12.5210 O   0  0  0  0  0  0
  -18.4669   42.0799  -11.5953 H   0  0  0  0  0  0
  -17.5617   43.2945  -10.5577 H   0  0  0  0  0  0
  -15.5123   42.5495  -11.2811 H   0  0  0  0  0  0
  -16.4571   42.0337  -12.7320 H   0  0  0  0  0  0
  -16.5236   39.5154   -9.4790 H   0  0  0  0  0  0
  -17.7993   39.4127  -10.7722 H   0  0  0  0  0  0
  -17.0912   41.7078   -8.9341 H   0  0  0  0  0  0
  -15.0001   40.3643  -10.9464 H   0  0  0  0  0  0
  -22.0605   43.4647   -5.5110 H   0  0  0  0  0  0
  -20.4838   43.4415   -6.2686 H   0  0  0  0  0  0
  -19.6399   40.4268   -9.8856 H   0  0  0  0  0  0
  -15.9769   38.7552  -12.3206 H   0  0  0  0  0  0
  1  9  2  0  0  0
  1  3  1  0  0  0
  1  2  1  0  0  0
  2 10  2  0  0  0
  2 11  1  0  0  0
  3 12  1  0  0  0
  3 13  2  0  0  0
  4  5  1  0  0  0
  4  7  1  0  0  0
  4 16  1  0  0  0
  4 17  1  0  0  0
  5  8  1  0  0  0
  5 18  1  0  0  0
  5 19  1  0  0  0
  6  8  1  0  0  0
  6  7  1  0  0  0
  6 20  1  0  0  0
  6 21  1  0  0  0
  7 12  1  0  0  0
  7 22  1  0  0  0
  8 15  1  0  0  0
  8 23  1  0  0  0
  9 14  1  0  0  0
 10 14  1  0  0  0
 11 24  1  0  0  0
 11 25  1  0  0  0
 12 26  1  0  0  0
 15 27  1  0  0  0
M  END
> <s_m_entry_id>
256

> <s_m_entry_name>
4yq8.1_ligand2

> <s_m_subgroup_title>
Ligands

> <s_m_subgroupid>
Ligands

> <b_m_subgroup_collapsed>
0

$$$$
