4YQ9_ligand
                    3D
 Schrodinger Suite 2021-1.
 30 31  0  0  1  0            999 V2000
  -21.4260   40.8770   -8.2690 C   0  0  0  0  0  0
  -20.3650   40.4840   -9.0840 C   0  0  0  0  0  0
  -19.9270   42.4360   -7.1870 C   0  0  0  0  0  0
  -21.2010   41.8860   -7.3190 C   0  0  0  0  0  0
  -19.0760   41.1310   -8.9070 C   0  0  0  0  0  0
  -22.3370   42.3300   -6.5300 C   0  0  0  0  0  0
  -18.8510   42.1210   -7.9120 N   0  0  0  0  0  0
  -22.1580   43.4840   -5.7870 N   0  0  0  0  0  0
  -17.9910   40.9530   -9.7090 N   0  0  0  0  0  0
  -23.4070   41.7050   -6.4610 O   0  0  0  0  0  0
  -17.9510   41.2180  -13.0320 C   0  0  0  0  0  0
  -16.7660   40.3240  -12.9450 C   0  0  0  0  0  0
  -18.9270   40.7250  -11.9860 C   0  0  0  0  0  0
  -16.6340   39.9290  -11.4720 C   0  0  0  0  0  0
  -18.0430   40.0840  -10.9040 C   0  0  0  0  0  0
  -22.3926   40.4076   -8.3771 H   0  0  0  0  0  0
  -20.5113   39.7140   -9.8271 H   0  0  0  0  0  0
  -19.7407   43.1940   -6.4406 H   0  0  0  0  0  0
  -22.9129   43.8410   -5.2188 H   0  0  0  0  0  0
  -21.2725   43.9691   -5.8130 H   0  0  0  0  0  0
  -17.1219   41.4205   -9.4939 H   0  0  0  0  0  0
  -18.4021   41.1262  -14.0200 H   0  0  0  0  0  0
  -17.6523   42.2393  -12.7958 H   0  0  0  0  0  0
  -15.8757   40.8715  -13.2544 H   0  0  0  0  0  0
  -16.9411   39.4311  -13.5452 H   0  0  0  0  0  0
  -19.5713   39.9628  -12.4241 H   0  0  0  0  0  0
  -19.4597   41.5752  -11.5600 H   0  0  0  0  0  0
  -15.9635   40.6264  -10.9698 H   0  0  0  0  0  0
  -16.3302   38.8844  -11.4041 H   0  0  0  0  0  0
  -18.4415   39.1064  -10.6328 H   0  0  0  0  0  0
  1  2  1  0  0  0
  1  4  2  0  0  0
  1 16  1  0  0  0
  2  5  2  0  0  0
  2 17  1  0  0  0
  3  4  1  0  0  0
  3  7  2  0  0  0
  3 18  1  0  0  0
  4  6  1  0  0  0
  5  7  1  0  0  0
  5  9  1  0  0  0
  6  8  1  0  0  0
  6 10  2  0  0  0
  8 19  1  0  0  0
  8 20  1  0  0  0
  9 15  1  0  0  0
  9 21  1  0  0  0
 11 12  1  0  0  0
 11 13  1  0  0  0
 11 22  1  0  0  0
 11 23  1  0  0  0
 12 14  1  0  0  0
 12 24  1  0  0  0
 12 25  1  0  0  0
 13 15  1  0  0  0
 13 26  1  0  0  0
 13 27  1  0  0  0
 14 15  1  0  0  0
 14 28  1  0  0  0
 14 29  1  0  0  0
 15 30  1  0  0  0
M  END
> <s_m_entry_id>
312

> <s_m_entry_name>
4yq9.1_ligand

> <s_m_subgroup_title>
Ligands

> <s_m_subgroupid>
Ligands

> <b_m_subgroup_collapsed>
0

$$$$
