4YQA_ligand
                    3D
 Schrodinger Suite 2021-1.
 33 34  0  0  1  0            999 V2000
  -21.4290   40.9370   -8.2730 C   0  0  0  0  0  0
  -20.3660   40.5090   -9.0430 C   0  0  0  0  0  0
  -19.9700   42.4570   -7.1300 C   0  0  0  0  0  0
  -21.2350   41.9320   -7.3210 C   0  0  0  0  0  0
  -19.0880   41.1230   -8.8010 C   0  0  0  0  0  0
  -22.4030   42.3920   -6.5750 C   0  0  0  0  0  0
  -17.9000   39.9310  -10.6310 C   0  0  0  0  0  0
  -18.8970   42.0870   -7.8280 N   0  0  0  0  0  0
  -22.2760   43.5590   -5.8430 N   0  0  0  0  0  0
  -17.9420   40.8760   -9.5140 N   0  0  0  0  0  0
  -23.4700   41.7810   -6.5810 O   0  0  0  0  0  0
  -16.8420   41.9820  -13.1500 C   0  0  0  0  0  0
  -16.8550   40.5580  -13.5820 C   0  0  0  0  0  0
  -17.6330   42.0350  -11.8550 C   0  0  0  0  0  0
  -18.1740   40.0140  -13.1300 C   0  0  0  0  0  0
  -18.4170   40.7210  -11.8110 C   0  0  0  0  0  0
  -22.4066   40.4993   -8.4112 H   0  0  0  0  0  0
  -20.5141   39.7431   -9.7899 H   0  0  0  0  0  0
  -19.8077   43.2145   -6.3775 H   0  0  0  0  0  0
  -18.5771   39.1014  -10.4275 H   0  0  0  0  0  0
  -16.8667   39.6383  -10.8175 H   0  0  0  0  0  0
  -23.0607   43.9108   -5.3133 H   0  0  0  0  0  0
  -21.3986   44.0592   -5.8383 H   0  0  0  0  0  0
  -17.0852   41.3542   -9.2744 H   0  0  0  0  0  0
  -17.3390   42.5934  -13.9032 H   0  0  0  0  0  0
  -15.8149   42.2933  -12.9599 H   0  0  0  0  0  0
  -16.0507   40.0203  -13.0800 H   0  0  0  0  0  0
  -16.7970   40.5093  -14.6694 H   0  0  0  0  0  0
  -18.3310   42.8714  -11.8917 H   0  0  0  0  0  0
  -16.9436   42.0730  -11.0116 H   0  0  0  0  0  0
  -18.0800   38.9427  -12.9524 H   0  0  0  0  0  0
  -18.9465   40.3045  -13.8420 H   0  0  0  0  0  0
  -19.4806   40.9247  -11.6869 H   0  0  0  0  0  0
  1  2  1  0  0  0
  1  4  2  0  0  0
  1 17  1  0  0  0
  2  5  2  0  0  0
  2 18  1  0  0  0
  3  4  1  0  0  0
  3  8  2  0  0  0
  3 19  1  0  0  0
  4  6  1  0  0  0
  5  8  1  0  0  0
  5 10  1  0  0  0
  6  9  1  0  0  0
  6 11  2  0  0  0
  7 10  1  0  0  0
  7 16  1  0  0  0
  7 20  1  0  0  0
  7 21  1  0  0  0
  9 22  1  0  0  0
  9 23  1  0  0  0
 10 24  1  0  0  0
 12 13  1  0  0  0
 12 14  1  0  0  0
 12 25  1  0  0  0
 12 26  1  0  0  0
 13 15  1  0  0  0
 13 27  1  0  0  0
 13 28  1  0  0  0
 14 16  1  0  0  0
 14 29  1  0  0  0
 14 30  1  0  0  0
 15 16  1  0  0  0
 15 31  1  0  0  0
 15 32  1  0  0  0
 16 33  1  0  0  0
M  END
> <s_m_entry_id>
315

> <s_m_entry_name>
4yqa.1_ligand

> <s_m_subgroup_title>
Ligands

> <s_m_subgroupid>
Ligands

> <b_m_subgroup_collapsed>
0

$$$$
