4yqb_chainB
                    3D
 Schrodinger Suite 2021-1.
 31 32  0  0  1  0            999 V2000
  -17.5010   42.9130  -12.5970 C   0  0  0  0  0  0
  -18.5280   42.7960  -13.5290 C   0  0  0  0  0  0
  -21.1740   40.6950   -8.4270 C   0  0  0  0  0  0
  -17.2120   41.8640  -11.7330 C   0  0  0  0  0  0
  -19.2720   41.6300  -13.6150 C   0  0  0  0  0  0
  -20.0700   40.2460   -9.1430 C   0  0  0  0  0  0
  -19.7110   42.0790   -7.1270 C   0  0  0  0  0  0
  -21.0080   41.6230   -7.3990 C   0  0  0  0  0  0
  -17.9500   40.6880  -11.7890 C   0  0  0  0  0  0
  -18.9720   40.5780  -12.7500 C   0  0  0  0  0  0
  -18.7820   40.7340   -8.8060 C   0  0  0  0  0  0
  -22.1730   42.0540   -6.6210 C   0  0  0  0  0  0
  -17.6920   39.6230  -10.7640 C   0  0  0  0  0  0
  -18.6050   41.6680   -7.7840 N   0  0  0  0  0  0
  -22.0810   43.2610   -5.9340 N   0  0  0  0  0  0
  -17.6260   40.4100   -9.5060 N   0  0  0  0  0  0
  -23.2050   41.3750   -6.5360 O   0  0  0  0  0  0
  -19.6300   39.4000  -12.7930 O   0  0  0  0  0  0
  -16.9228   43.8235  -12.5421 H   0  0  0  0  0  0
  -18.7509   43.6181  -14.1930 H   0  0  0  0  0  0
  -22.1600   40.3252   -8.6668 H   0  0  0  0  0  0
  -16.4114   41.9610  -11.0147 H   0  0  0  0  0  0
  -20.0666   41.5488  -14.3419 H   0  0  0  0  0  0
  -20.1995   39.5341   -9.9448 H   0  0  0  0  0  0
  -19.6284   42.8067   -6.3332 H   0  0  0  0  0  0
  -16.7192   39.1698  -10.9549 H   0  0  0  0  0  0
  -18.5490   38.9508  -10.7219 H   0  0  0  0  0  0
  -22.8630   43.5916   -5.3869 H   0  0  0  0  0  0
  -21.2322   43.8063   -5.9826 H   0  0  0  0  0  0
  -16.7256   40.7103   -9.1607 H   0  0  0  0  0  0
  -19.2777   38.8115  -12.1213 H   0  0  0  0  0  0
  1  2  2  0  0  0
  1  4  1  0  0  0
  1 19  1  0  0  0
  2  5  1  0  0  0
  2 20  1  0  0  0
  3  6  1  0  0  0
  3  8  2  0  0  0
  3 21  1  0  0  0
  4  9  2  0  0  0
  4 22  1  0  0  0
  5 10  2  0  0  0
  5 23  1  0  0  0
  6 11  2  0  0  0
  6 24  1  0  0  0
  7 14  2  0  0  0
  7  8  1  0  0  0
  7 25  1  0  0  0
  8 12  1  0  0  0
  9 10  1  0  0  0
  9 13  1  0  0  0
 10 18  1  0  0  0
 11 16  1  0  0  0
 11 14  1  0  0  0
 12 17  2  0  0  0
 12 15  1  0  0  0
 13 16  1  0  0  0
 13 26  1  0  0  0
 13 27  1  0  0  0
 15 28  1  0  0  0
 15 29  1  0  0  0
 16 30  1  0  0  0
 18 31  1  0  0  0
M  END
> <s_m_entry_id>
253

> <s_m_entry_name>
4yqb.1_B

> <s_m_Chain_Name>
B

> <s_m_subgroup_title>
Ligands

> <s_m_subgroupid>
Ligands

> <b_m_subgroup_collapsed>
0

$$$$
