4yqc_chainB
                    3D
 Schrodinger Suite 2021-1.
 31 32  0  0  1  0            999 V2000
  -21.2600   40.7720   -8.3720 C   0  0  0  0  0  0
  -20.1410   40.4690   -9.1210 C   0  0  0  0  0  0
  -19.8970   42.2660   -7.1270 C   0  0  0  0  0  0
  -21.1240   41.6960   -7.3540 C   0  0  0  0  0  0
  -18.9390   41.0890   -8.8350 C   0  0  0  0  0  0
  -22.2590   42.0910   -6.5080 C   0  0  0  0  0  0
  -16.6030   40.0310  -11.4860 C   0  0  0  0  0  0
  -16.7880   40.2320  -12.9760 C   0  0  0  0  0  0
  -18.8110   40.9170  -11.8100 C   0  0  0  0  0  0
  -17.9630   40.1300  -10.8420 C   0  0  2  0  0  0
  -18.2360   40.6090  -13.1740 C   0  0  2  0  0  0
  -18.8040   41.9820   -7.8420 N   0  0  0  0  0  0
  -22.0240   43.2340   -5.7790 N   0  0  0  0  0  0
  -17.7750   40.8080   -9.5710 N   0  0  0  0  0  0
  -23.2900   41.4340   -6.4770 O   0  0  0  0  0  0
  -18.9190   39.4730  -13.6730 O   0  0  0  0  0  0
  -22.2023   40.2916   -8.5903 H   0  0  0  0  0  0
  -20.2076   39.7512   -9.9252 H   0  0  0  0  0  0
  -19.8430   42.9802   -6.3187 H   0  0  0  0  0  0
  -15.9569   40.8153  -11.0916 H   0  0  0  0  0  0
  -16.1860   39.0408  -11.3026 H   0  0  0  0  0  0
  -16.5830   39.2962  -13.4959 H   0  0  0  0  0  0
  -16.1514   41.0501  -13.3129 H   0  0  0  0  0  0
  -19.8397   40.5598  -11.7624 H   0  0  0  0  0  0
  -18.7014   41.9817  -11.6036 H   0  0  0  0  0  0
  -18.3843   39.1369  -10.6859 H   0  0  0  0  0  0
  -18.3359   41.4598  -13.8480 H   0  0  0  0  0  0
  -22.7380   43.5959   -5.1631 H   0  0  0  0  0  0
  -21.1375   43.7112   -5.8598 H   0  0  0  0  0  0
  -16.8712   41.0760   -9.2084 H   0  0  0  0  0  0
  -19.8447   39.6890  -13.8073 H   0  0  0  0  0  0
  1  2  1  0  0  0
  1  4  2  0  0  0
  1 17  1  0  0  0
  2  5  2  0  0  0
  2 18  1  0  0  0
  3 12  2  0  0  0
  3  4  1  0  0  0
  3 19  1  0  0  0
  4  6  1  0  0  0
  5 14  1  0  0  0
  5 12  1  0  0  0
  6 15  2  0  0  0
  6 13  1  0  0  0
  7  8  1  0  0  0
  7 10  1  0  0  0
  7 20  1  0  0  0
  7 21  1  0  0  0
  8 11  1  0  0  0
  8 22  1  0  0  0
  8 23  1  0  0  0
  9 11  1  0  0  0
  9 10  1  0  0  0
  9 24  1  0  0  0
  9 25  1  0  0  0
 10 14  1  0  0  0
 10 26  1  0  0  0
 11 16  1  0  0  0
 11 27  1  0  0  0
 13 28  1  0  0  0
 13 29  1  0  0  0
 14 30  1  0  0  0
 16 31  1  0  0  0
M  END
> <s_m_entry_id>
250

> <s_m_entry_name>
4yqc.1_B

> <s_m_Chain_Name>
B

> <s_m_subgroup_title>
Ligands

> <s_m_subgroupid>
Ligands

> <b_m_subgroup_collapsed>
0

$$$$
