4yqd_chainB
                    3D
 Schrodinger Suite 2021-1.
 59 61  0  0  1  0            999 V2000
  -16.4380   49.0740  -12.0450 C   0  0  0  0  0  0
  -16.5800   47.7400  -12.3580 C   0  0  0  0  0  0
  -21.1840   40.8230   -8.3800 C   0  0  0  0  0  0
  -17.4540   49.7470  -11.4030 C   0  0  0  0  0  0
  -20.0260   40.5220   -9.0780 C   0  0  0  0  0  0
  -18.7670   47.7550  -11.3790 C   0  0  0  0  0  0
  -19.9350   42.4150   -7.1560 C   0  0  0  0  0  0
  -17.7470   47.0930  -12.0190 C   0  0  0  0  0  0
  -21.1370   41.7950   -7.4020 C   0  0  0  0  0  0
  -18.6180   49.0890  -11.0710 C   0  0  0  0  0  0
  -18.8530   41.1940   -8.7760 C   0  0  0  0  0  0
  -17.9400   45.6690  -12.3400 C   0  0  0  0  0  0
  -22.3470   42.1710   -6.6530 C   0  0  0  0  0  0
  -19.0400   39.6020  -13.9940 C   0  0  0  0  0  0
  -17.6150   39.3540  -13.5510 C   0  0  0  0  0  0
  -19.8090   40.1570  -12.8110 C   0  0  0  0  0  0
  -16.9750   40.6570  -13.1090 C   0  0  0  0  0  0
  -19.1630   41.4420  -12.3180 C   0  0  0  0  0  0
  -17.7120   41.2590  -11.9310 C   0  0  0  0  0  0
  -19.7140   49.8130  -10.3730 C   0  0  0  0  0  0
  -17.1050   42.6050  -11.5810 C   0  0  0  0  0  0
  -17.6460   40.2990  -10.7420 C   0  0  0  0  0  0
  -16.9120   43.4940  -12.8100 C   0  0  0  0  0  0
  -18.8020   42.1290   -7.8130 N   0  0  0  0  0  0
  -22.2210   43.3450   -5.9510 N   0  0  0  0  0  0
  -17.6200   40.9490   -9.4360 N   0  0  0  0  0  0
  -16.8040   44.9010  -12.4410 N   0  0  0  0  0  0
  -19.0880   45.2720  -12.4940 O   0  0  0  0  0  0
  -23.3690   41.4990   -6.6960 O   0  0  0  0  0  0
  -15.5280   49.5953  -12.3030 H   0  0  0  0  0  0
  -15.7819   47.2158  -12.8626 H   0  0  0  0  0  0
  -22.1017   40.3001   -8.6054 H   0  0  0  0  0  0
  -17.3391   50.7927  -11.1588 H   0  0  0  0  0  0
  -20.0421   39.7682   -9.8512 H   0  0  0  0  0  0
  -19.6747   47.2291  -11.1223 H   0  0  0  0  0  0
  -19.9357   43.1705   -6.3842 H   0  0  0  0  0  0
  -19.4905   38.6613  -14.3106 H   0  0  0  0  0  0
  -19.0464   40.3303  -14.8049 H   0  0  0  0  0  0
  -17.0455   38.9324  -14.3793 H   0  0  0  0  0  0
  -17.6106   38.6475  -12.7210 H   0  0  0  0  0  0
  -19.8164   39.4223  -12.0059 H   0  0  0  0  0  0
  -20.8377   40.3591  -13.1093 H   0  0  0  0  0  0
  -16.9795   41.3633  -13.9392 H   0  0  0  0  0  0
  -15.9363   40.4757  -12.8329 H   0  0  0  0  0  0
  -19.7208   41.8226  -11.4624 H   0  0  0  0  0  0
  -19.2377   42.2052  -13.0926 H   0  0  0  0  0  0
  -20.5458   49.1311  -10.1965 H   0  0  0  0  0  0
  -19.3487   50.1942   -9.4194 H   0  0  0  0  0  0
  -20.0517   50.6450  -10.9909 H   0  0  0  0  0  0
  -16.1441   42.4524  -11.0896 H   0  0  0  0  0  0
  -17.7454   43.1153  -10.8616 H   0  0  0  0  0  0
  -16.7701   39.6582  -10.8437 H   0  0  0  0  0  0
  -18.4905   39.6113  -10.7861 H   0  0  0  0  0  0
  -17.7536   43.3608  -13.4898 H   0  0  0  0  0  0
  -16.0106   43.1881  -13.3411 H   0  0  0  0  0  0
  -22.9957   43.6916   -5.4034 H   0  0  0  0  0  0
  -21.3537   43.8616   -5.9824 H   0  0  0  0  0  0
  -16.7509   41.2233   -9.0006 H   0  0  0  0  0  0
  -15.8991   45.3115  -12.2599 H   0  0  0  0  0  0
  1  2  2  0  0  0
  1  4  1  0  0  0
  1 30  1  0  0  0
  2  8  1  0  0  0
  2 31  1  0  0  0
  3  5  1  0  0  0
  3  9  2  0  0  0
  3 32  1  0  0  0
  4 10  2  0  0  0
  4 33  1  0  0  0
  5 11  2  0  0  0
  5 34  1  0  0  0
  6  8  2  0  0  0
  6 10  1  0  0  0
  6 35  1  0  0  0
  7 24  2  0  0  0
  7  9  1  0  0  0
  7 36  1  0  0  0
  8 12  1  0  0  0
  9 13  1  0  0  0
 10 20  1  0  0  0
 11 26  1  0  0  0
 11 24  1  0  0  0
 12 28  2  0  0  0
 12 27  1  0  0  0
 13 29  2  0  0  0
 13 25  1  0  0  0
 14 15  1  0  0  0
 14 16  1  0  0  0
 14 37  1  0  0  0
 14 38  1  0  0  0
 15 17  1  0  0  0
 15 39  1  0  0  0
 15 40  1  0  0  0
 16 18  1  0  0  0
 16 41  1  0  0  0
 16 42  1  0  0  0
 17 19  1  0  0  0
 17 43  1  0  0  0
 17 44  1  0  0  0
 18 19  1  0  0  0
 18 45  1  0  0  0
 18 46  1  0  0  0
 19 21  1  0  0  0
 19 22  1  0  0  0
 20 47  1  0  0  0
 20 48  1  0  0  0
 20 49  1  0  0  0
 21 23  1  0  0  0
 21 50  1  0  0  0
 21 51  1  0  0  0
 22 26  1  0  0  0
 22 52  1  0  0  0
 22 53  1  0  0  0
 23 27  1  0  0  0
 23 54  1  0  0  0
 23 55  1  0  0  0
 25 56  1  0  0  0
 25 57  1  0  0  0
 26 58  1  0  0  0
 27 59  1  0  0  0
M  END
> <s_m_entry_id>
247

> <s_m_entry_name>
4yqd.1_B

> <s_m_Chain_Name>
B

> <s_m_subgroup_title>
Ligands

> <s_m_subgroupid>
Ligands

> <b_m_subgroup_collapsed>
0

$$$$
