4yqg_chainB
                    3D
 Schrodinger Suite 2021-1.
 32 33  0  0  1  0            999 V2000
  -21.4170   43.4100   -6.0420 N   0  0  0  0  0  0
  -23.2510   41.9420   -6.6070 N   0  0  0  0  0  0
  -21.2710   41.5160   -7.5470 C   0  0  0  0  0  0
  -19.8940   41.5920   -7.9140 C   0  0  0  0  0  0
  -18.1570   40.4670   -9.1460 C   0  0  0  0  0  0
  -18.9840   40.3930  -12.8530 C   0  0  0  0  0  0
  -16.5880   40.9390  -12.5630 C   0  0  0  0  0  0
  -21.9880   42.3630   -6.6740 C   0  0  0  0  0  0
  -23.3040   40.8300   -7.4460 O   0  0  0  0  0  0
  -22.0690   40.5660   -8.0310 N   0  0  0  0  0  0
  -19.1440   42.4350   -7.4440 O   0  0  0  0  0  0
  -19.5470   40.6380   -8.8290 N   0  0  0  0  0  0
  -17.9500   40.2940  -10.6290 C   0  0  0  0  0  0
  -19.2120   40.6310  -11.3810 C   0  0  0  0  0  0
  -17.8440   41.2560  -13.3360 C   0  0  0  0  0  0
  -16.8320   41.1900  -11.0970 C   0  0  0  0  0  0
  -20.4388   43.6152   -6.1873 H   0  0  0  0  0  0
  -21.9679   43.9883   -5.4238 H   0  0  0  0  0  0
  -17.5965   41.3356   -8.8003 H   0  0  0  0  0  0
  -17.7700   39.5935   -8.6213 H   0  0  0  0  0  0
  -18.7399   39.3435  -13.0176 H   0  0  0  0  0  0
  -19.8891   40.6443  -13.4059 H   0  0  0  0  0  0
  -15.7766   41.5784  -12.9107 H   0  0  0  0  0  0
  -16.3238   39.8922  -12.7131 H   0  0  0  0  0  0
  -20.2616   40.0729   -9.2650 H   0  0  0  0  0  0
  -17.6823   39.2570  -10.8315 H   0  0  0  0  0  0
  -20.0241   39.9933  -11.0316 H   0  0  0  0  0  0
  -19.4633   41.6789  -11.2173 H   0  0  0  0  0  0
  -18.1000   42.3064  -13.1977 H   0  0  0  0  0  0
  -17.6736   41.0721  -14.3968 H   0  0  0  0  0  0
  -17.1159   42.2320  -10.9494 H   0  0  0  0  0  0
  -15.9261   40.9643  -10.5343 H   0  0  0  0  0  0
  1  8  1  0  0  0
  1 17  1  0  0  0
  1 18  1  0  0  0
  2  9  1  0  0  0
  2  8  2  0  0  0
  3 10  2  0  0  0
  3  4  1  0  0  0
  3  8  1  0  0  0
  4 12  1  0  0  0
  4 11  2  0  0  0
  5 13  1  0  0  0
  5 12  1  0  0  0
  5 19  1  0  0  0
  5 20  1  0  0  0
  6 15  1  0  0  0
  6 14  1  0  0  0
  6 21  1  0  0  0
  6 22  1  0  0  0
  7 15  1  0  0  0
  7 16  1  0  0  0
  7 23  1  0  0  0
  7 24  1  0  0  0
  9 10  1  0  0  0
 12 25  1  0  0  0
 13 14  1  0  0  0
 13 16  1  0  0  0
 13 26  1  0  0  0
 14 27  1  0  0  0
 14 28  1  0  0  0
 15 29  1  0  0  0
 15 30  1  0  0  0
 16 31  1  0  0  0
 16 32  1  0  0  0
M  END
> <s_m_entry_id>
244

> <s_m_entry_name>
4yqg.1_B

> <s_m_Chain_Name>
B

> <s_m_subgroup_title>
Ligands

> <s_m_subgroupid>
Ligands

> <b_m_subgroup_collapsed>
0

$$$$
