4yqi_chainB
                    3D
 Schrodinger Suite 2021-1.
 37 39  0  0  1  0            999 V2000
  -23.0720   41.4880   -6.7600 N   0  0  0  0  0  0
  -18.9680   40.6590   -9.0570 N   0  0  0  0  0  0
  -19.4170   40.1980  -11.3070 C   0  0  0  0  0  0
  -17.5550   40.1320  -13.0470 C   0  0  0  0  0  0
  -18.0170   41.4110  -13.7580 C   0  0  0  0  0  0
  -17.2180   42.5620  -13.8000 C   0  0  0  0  0  0
  -17.7520   43.7210  -14.3680 C   0  0  0  0  0  0
  -19.7810   42.5120  -14.8210 C   0  0  0  0  0  0
  -19.0470   43.7130  -14.8880 C   0  0  0  0  0  0
  -21.0420   41.1880   -7.7330 C   0  0  0  0  0  0
  -21.8410   42.0600   -6.8390 C   0  0  0  0  0  0
  -19.6130   41.4100   -8.0510 C   0  0  0  0  0  0
  -17.5590   40.7530   -9.3230 C   0  0  0  0  0  0
  -19.5120   39.6290   -9.9130 C   0  0  0  0  0  0
  -17.2430   41.1700  -10.7420 C   0  0  0  0  0  0
  -19.2810   41.3750  -14.2670 N   0  0  0  0  0  0
  -21.8460   40.1910   -8.1140 N   0  0  0  0  0  0
  -18.0140   40.3870  -11.7230 N   0  0  0  0  0  0
  -21.4100   43.2040   -6.2340 N   0  0  0  0  0  0
  -19.0000   42.2510   -7.4010 O   0  0  0  0  0  0
  -23.0310   40.3740   -7.5420 O   0  0  0  0  0  0
  -19.9157   39.5278  -12.0071 H   0  0  0  0  0  0
  -19.9385   41.1544  -11.3447 H   0  0  0  0  0  0
  -16.4655   40.0981  -13.0464 H   0  0  0  0  0  0
  -18.0994   39.2806  -13.4553 H   0  0  0  0  0  0
  -16.2155   42.5384  -13.3990 H   0  0  0  0  0  0
  -17.1625   44.6252  -14.4052 H   0  0  0  0  0  0
  -20.7838   42.4691  -15.2196 H   0  0  0  0  0  0
  -19.4588   44.6105  -15.3255 H   0  0  0  0  0  0
  -17.0865   39.7932   -9.1142 H   0  0  0  0  0  0
  -17.1061   41.4606   -8.6285 H   0  0  0  0  0  0
  -20.5596   39.4653   -9.6603 H   0  0  0  0  0  0
  -18.8902   38.7364   -9.8441 H   0  0  0  0  0  0
  -16.1774   41.0385  -10.9299 H   0  0  0  0  0  0
  -17.4668   42.2294  -10.8671 H   0  0  0  0  0  0
  -20.4625   43.5240   -6.3754 H   0  0  0  0  0  0
  -22.0383   43.7311   -5.6446 H   0  0  0  0  0  0
  1 21  1  0  0  0
  1 11  2  0  0  0
  2 14  1  0  0  0
  2 13  1  0  0  0
  2 12  1  0  0  0
  3 18  1  0  0  0
  3 14  1  0  0  0
  3 22  1  0  0  0
  3 23  1  0  0  0
  4  5  1  0  0  0
  4 18  1  0  0  0
  4 24  1  0  0  0
  4 25  1  0  0  0
  5 16  1  0  0  0
  5  6  2  0  0  0
  6  7  1  0  0  0
  6 26  1  0  0  0
  7  9  2  0  0  0
  7 27  1  0  0  0
  8  9  1  0  0  0
  8 16  2  0  0  0
  8 28  1  0  0  0
  9 29  1  0  0  0
 10 17  2  0  0  0
 10 12  1  0  0  0
 10 11  1  0  0  0
 11 19  1  0  0  0
 12 20  2  0  0  0
 13 15  1  0  0  0
 13 30  1  0  0  0
 13 31  1  0  0  0
 14 32  1  0  0  0
 14 33  1  0  0  0
 15 18  1  0  0  0
 15 34  1  0  0  0
 15 35  1  0  0  0
 17 21  1  0  0  0
 19 36  1  0  0  0
 19 37  1  0  0  0
M  END
> <s_m_entry_id>
241

> <s_m_entry_name>
4yqi.1_B

> <s_m_Chain_Name>
B

> <s_m_subgroup_title>
Ligands

> <s_m_subgroupid>
Ligands

> <b_m_subgroup_collapsed>
0

$$$$
