4yqj_chainB
                    3D
 Schrodinger Suite 2021-1.
 31 32  0  0  1  0            999 V2000
  -19.6490   42.3710   -7.2000 C   0  0  0  0  0  0
  -20.8450   41.6640   -7.3570 C   0  0  0  0  0  0
  -20.9560   40.6070   -8.3510 C   0  0  0  0  0  0
  -18.7510   41.0980   -8.9280 C   0  0  0  0  0  0
  -22.0450   42.0560   -6.4830 C   0  0  0  0  0  0
  -17.8280   40.9650  -13.0430 C   0  0  0  0  0  0
  -16.4820   40.2940  -12.8760 C   0  0  0  0  0  0
  -18.6930   40.4820  -11.9030 C   0  0  0  0  0  0
  -16.4000   39.8300  -11.4630 C   0  0  0  0  0  0
  -17.7580   39.9110  -10.8870 C   0  0  0  0  0  0
  -18.5810   42.0780   -7.9690 N   0  0  0  0  0  0
  -19.8790   40.3670   -9.0870 N   0  0  0  0  0  0
  -22.1670   39.8420   -8.5620 N   0  0  0  0  0  0
  -21.9470   43.2310   -5.6420 N   0  0  0  0  0  0
  -17.6330   40.7950   -9.7520 N   0  0  0  0  0  0
  -23.0990   41.4060   -6.5390 O   0  0  0  0  0  0
  -19.5826   43.1543   -6.4594 H   0  0  0  0  0  0
  -18.2714   40.6571  -13.9899 H   0  0  0  0  0  0
  -17.7054   42.0458  -12.9721 H   0  0  0  0  0  0
  -15.6898   41.0181  -13.0664 H   0  0  0  0  0  0
  -16.4198   39.4348  -13.5439 H   0  0  0  0  0  0
  -19.3604   39.6984  -12.2617 H   0  0  0  0  0  0
  -19.2262   41.3280  -11.4694 H   0  0  0  0  0  0
  -15.7296   40.4836  -10.9049 H   0  0  0  0  0  0
  -16.0574   38.7955  -11.4402 H   0  0  0  0  0  0
  -18.0967   38.9254  -10.5678 H   0  0  0  0  0  0
  -22.1909   39.1182   -9.2661 H   0  0  0  0  0  0
  -22.9879   40.0321   -8.0051 H   0  0  0  0  0  0
  -22.7272   43.5027   -5.0610 H   0  0  0  0  0  0
  -21.0984   43.7787   -5.6365 H   0  0  0  0  0  0
  -16.7307   41.2004   -9.5481 H   0  0  0  0  0  0
  1 11  1  0  0  0
  1  2  2  0  0  0
  1 17  1  0  0  0
  2  3  1  0  0  0
  2  5  1  0  0  0
  3 12  2  0  0  0
  3 13  1  0  0  0
  4 15  1  0  0  0
  4 12  1  0  0  0
  4 11  2  0  0  0
  5 16  2  0  0  0
  5 14  1  0  0  0
  6  7  1  0  0  0
  6  8  1  0  0  0
  6 18  1  0  0  0
  6 19  1  0  0  0
  7  9  1  0  0  0
  7 20  1  0  0  0
  7 21  1  0  0  0
  8 10  1  0  0  0
  8 22  1  0  0  0
  8 23  1  0  0  0
  9 10  1  0  0  0
  9 24  1  0  0  0
  9 25  1  0  0  0
 10 15  1  0  0  0
 10 26  1  0  0  0
 13 27  1  0  0  0
 13 28  1  0  0  0
 14 29  1  0  0  0
 14 30  1  0  0  0
 15 31  1  0  0  0
M  END
> <s_m_entry_id>
238

> <s_m_entry_name>
4yqj.1_B

> <s_m_Chain_Name>
B

> <s_m_subgroup_title>
Ligands

> <s_m_subgroupid>
Ligands

> <b_m_subgroup_collapsed>
0

$$$$
