4yqk_chainB
                    3D
 Schrodinger Suite 2021-1.
 29 30  0  0  1  0            999 V2000
  -20.9040   41.5290   -7.8480 C   0  0  0  0  0  0
  -21.7550   42.2380   -6.9460 C   0  0  0  0  0  0
  -19.5240   41.7950   -8.1590 C   0  0  0  0  0  0
  -17.6490   42.5980  -10.6620 C   0  0  0  0  0  0
  -17.1620   40.2860  -10.5130 C   0  0  0  0  0  0
  -16.2440   42.8360  -11.1670 C   0  0  0  0  0  0
  -15.7810   40.5590  -11.0880 C   0  0  0  0  0  0
  -17.6570   41.4480   -9.6800 C   0  0  0  0  0  0
  -21.5730   40.5210   -8.4180 N   0  0  0  0  0  0
  -22.9680   41.6830   -6.9370 N   0  0  0  0  0  0
  -15.8290   41.7060  -11.9830 N   0  3  0  0  0  0
  -21.3290   43.3040   -6.2270 N   0  0  0  0  0  0
  -19.0410   41.1850   -9.3060 N   0  0  0  0  0  0
  -18.8530   42.5540   -7.4800 O   0  0  0  0  0  0
  -22.8610   40.6090   -7.8490 O   0  0  0  0  0  0
  -18.3018   42.3623  -11.5025 H   0  0  0  0  0  0
  -18.0151   43.4987  -10.1693 H   0  0  0  0  0  0
  -17.1274   39.3871   -9.8974 H   0  0  0  0  0  0
  -17.8629   40.0982  -11.3263 H   0  0  0  0  0  0
  -15.5664   42.9402  -10.3196 H   0  0  0  0  0  0
  -16.2234   43.7450  -11.7682 H   0  0  0  0  0  0
  -15.4373   39.6832  -11.6384 H   0  0  0  0  0  0
  -15.0830   40.7614  -10.2756 H   0  0  0  0  0  0
  -17.0224   41.6376   -8.8143 H   0  0  0  0  0  0
  -14.9060   41.8810  -12.3539 H   0  0  0  0  0  0
  -16.5178   41.5412  -12.7030 H   0  0  0  0  0  0
  -21.9643   43.7768   -5.6002 H   0  0  0  0  0  0
  -20.3760   43.6261   -6.3177 H   0  0  0  0  0  0
  -19.6429   40.5830   -9.8496 H   0  0  0  0  0  0
  1  9  2  0  0  0
  1  3  1  0  0  0
  1  2  1  0  0  0
  2 10  2  0  0  0
  2 12  1  0  0  0
  3 13  1  0  0  0
  3 14  2  0  0  0
  4  6  1  0  0  0
  4  8  1  0  0  0
  4 16  1  0  0  0
  4 17  1  0  0  0
  5  7  1  0  0  0
  5  8  1  0  0  0
  5 18  1  0  0  0
  5 19  1  0  0  0
  6 11  1  0  0  0
  6 20  1  0  0  0
  6 21  1  0  0  0
  7 11  1  0  0  0
  7 22  1  0  0  0
  7 23  1  0  0  0
  8 13  1  0  0  0
  8 24  1  0  0  0
  9 15  1  0  0  0
 10 15  1  0  0  0
 11 25  1  0  0  0
 11 26  1  0  0  0
 12 27  1  0  0  0
 12 28  1  0  0  0
 13 29  1  0  0  0
M  CHG  1  11   1
M  END
> <s_m_entry_id>
235

> <s_m_entry_name>
4yqk.1_B

> <s_m_Chain_Name>
B

> <s_m_subgroup_title>
Ligands

> <s_m_subgroupid>
Ligands

> <b_m_subgroup_collapsed>
0

$$$$
