4yql_ligand
                    3D
 Schrodinger Suite 2021-1.
 35 37  0  0  1  0            999 V2000
  -16.6380   44.0120  -12.1590 C   0  0  0  0  0  0
  -14.9700   43.1650  -10.7260 C   0  0  0  0  0  0
  -15.8480   45.0950  -12.4690 C   0  0  0  0  0  0
  -14.1580   44.2400  -11.0190 C   0  0  0  0  0  0
  -16.2200   43.0280  -11.2900 C   0  0  0  0  0  0
  -14.6050   45.2020  -11.8950 C   0  0  0  0  0  0
  -20.5550   41.7260   -7.7490 C   0  0  0  0  0  0
  -21.4830   42.3070   -6.8420 C   0  0  0  0  0  0
  -19.1810   42.0440   -7.9850 C   0  0  0  0  0  0
  -16.6050   40.5990  -10.3840 C   0  0  0  0  0  0
  -17.1000   41.8860  -10.9820 C   0  0  1  0  0  0
  -17.3720   41.5720   -9.5380 C   0  0  1  0  0  0
  -21.1240   40.7370   -8.4410 N   0  0  0  0  0  0
  -22.6510   41.6780   -6.9740 N   0  0  0  0  0  0
  -21.2020   43.3240   -5.9940 N   0  0  0  0  0  0
  -14.4810   47.8780  -11.6150 N   0  0  0  0  0  0
  -18.6970   41.3630   -9.0740 N   0  0  0  0  0  0
  -18.5550   42.8110   -7.2660 O   0  0  0  0  0  0
  -12.3260   46.4370  -11.5820 O   0  0  0  0  0  0
  -13.6030   46.7340  -13.7450 O   0  0  0  0  0  0
  -22.4320   40.7090   -7.9590 O   0  0  0  0  0  0
  -13.5740   46.6050  -12.3020 S   0  0  0  0  0  0
  -17.6184   43.9145  -12.6013 H   0  0  0  0  0  0
  -14.6044   42.4193  -10.0356 H   0  0  0  0  0  0
  -16.2078   45.8469  -13.1557 H   0  0  0  0  0  0
  -13.1826   44.3202  -10.5624 H   0  0  0  0  0  0
  -15.5919   40.9074  -10.1258 H   0  0  0  0  0  0
  -17.4249   39.9447  -10.6804 H   0  0  0  0  0  0
  -17.9610   41.7816  -11.6423 H   0  0  0  0  0  0
  -16.7484   42.1341   -8.8428 H   0  0  0  0  0  0
  -21.9191   43.6816   -5.3791 H   0  0  0  0  0  0
  -20.2753   43.7252   -5.9761 H   0  0  0  0  0  0
  -14.1473   48.8290  -11.6815 H   0  0  0  0  0  0
  -15.3512   47.6801  -11.1421 H   0  0  0  0  0  0
  -19.2863   40.7011   -9.5585 H   0  0  0  0  0  0
  1  3  1  0  0  0
  1  5  2  0  0  0
  1 23  1  0  0  0
  2  5  1  0  0  0
  2  4  2  0  0  0
  2 24  1  0  0  0
  3  6  2  0  0  0
  3 25  1  0  0  0
  4  6  1  0  0  0
  4 26  1  0  0  0
  5 11  1  0  0  0
  6 22  1  0  0  0
  7 13  2  0  0  0
  7  9  1  0  0  0
  7  8  1  0  0  0
  8 14  2  0  0  0
  8 15  1  0  0  0
  9 17  1  0  0  0
  9 18  2  0  0  0
 10 11  1  0  0  0
 10 12  1  0  0  0
 10 27  1  0  0  0
 10 28  1  0  0  0
 11 12  1  0  0  0
 11 29  1  0  0  0
 12 17  1  0  0  0
 12 30  1  0  0  0
 13 21  1  0  0  0
 14 21  1  0  0  0
 15 31  1  0  0  0
 15 32  1  0  0  0
 16 22  1  0  0  0
 16 33  1  0  0  0
 16 34  1  0  0  0
 17 35  1  0  0  0
 19 22  2  0  0  0
 20 22  2  0  0  0
M  END
> <s_m_entry_id>
228

> <s_m_entry_name>
4yql.1_ligand

> <s_m_subgroup_title>
Ligands

> <s_m_subgroupid>
Ligands

> <b_m_subgroup_collapsed>
0

$$$$
