4yqn_ligand
                    3D
 Schrodinger Suite 2021-1.
 35 36  0  0  1  0            999 V2000
  -21.2090   40.9000   -8.4510 C   0  0  0  0  0  0
  -20.0370   40.7370   -9.1490 C   0  0  0  0  0  0
  -20.0340   42.4710   -7.1030 C   0  0  0  0  0  0
  -21.1840   41.7910   -7.4100 C   0  0  0  0  0  0
  -18.9170   41.4520   -8.7880 C   0  0  0  0  0  0
  -22.3890   42.0170   -6.6230 C   0  0  0  0  0  0
  -16.8300   39.9810  -11.3620 C   0  0  0  0  0  0
  -19.1100   40.8450  -11.4830 C   0  0  0  0  0  0
  -17.1030   40.3830  -12.7890 C   0  0  1  0  0  0
  -18.0720   40.2650  -10.5560 C   0  0  2  0  0  0
  -18.5110   40.9140  -12.8640 C   0  0  1  0  0  0
  -16.1290   41.4530  -13.2140 C   0  0  0  0  0  0
  -18.8910   42.3210   -7.7730 N   0  0  0  0  0  0
  -22.2990   43.1290   -5.8290 N   0  0  0  0  0  0
  -17.7560   41.2410   -9.5380 N   0  0  0  0  0  0
  -23.3360   41.2510   -6.7180 O   0  0  0  0  0  0
  -19.2610   40.0680  -13.7180 O   0  0  0  0  0  0
  -16.3470   42.5950  -12.4020 O   0  0  0  0  0  0
  -22.0880   40.3396   -8.7333 H   0  0  0  0  0  0
  -19.9947   40.0485   -9.9800 H   0  0  0  0  0  0
  -20.0859   43.1571   -6.2705 H   0  0  0  0  0  0
  -16.0010   40.5709  -10.9711 H   0  0  0  0  0  0
  -16.6072   38.9148  -11.3217 H   0  0  0  0  0  0
  -19.9854   40.1957  -11.4992 H   0  0  0  0  0  0
  -19.3726   41.8494  -11.1508 H   0  0  0  0  0  0
  -17.0026   39.5151  -13.4407 H   0  0  0  0  0  0
  -18.4437   39.3482  -10.0984 H   0  0  0  0  0  0
  -18.5167   41.9388  -13.2354 H   0  0  0  0  0  0
  -16.3061   41.7110  -14.2581 H   0  0  0  0  0  0
  -15.1099   41.0942  -13.0696 H   0  0  0  0  0  0
  -23.0736   43.3899   -5.2357 H   0  0  0  0  0  0
  -21.4580   43.6883   -5.8366 H   0  0  0  0  0  0
  -16.9094   41.7424   -9.3100 H   0  0  0  0  0  0
  -18.8929   40.0994  -14.6041 H   0  0  0  0  0  0
  -15.7359   43.2903  -12.6562 H   0  0  0  0  0  0
  1  2  1  0  0  0
  1  4  2  0  0  0
  1 19  1  0  0  0
  2  5  2  0  0  0
  2 20  1  0  0  0
  3 13  2  0  0  0
  3  4  1  0  0  0
  3 21  1  0  0  0
  4  6  1  0  0  0
  5 15  1  0  0  0
  5 13  1  0  0  0
  6 16  2  0  0  0
  6 14  1  0  0  0
  7  9  1  0  0  0
  7 10  1  0  0  0
  7 22  1  0  0  0
  7 23  1  0  0  0
  8 11  1  0  0  0
  8 10  1  0  0  0
  8 24  1  0  0  0
  8 25  1  0  0  0
  9 12  1  0  0  0
  9 11  1  0  0  0
  9 26  1  0  0  0
 10 15  1  0  0  0
 10 27  1  0  0  0
 11 17  1  0  0  0
 11 28  1  0  0  0
 12 18  1  0  0  0
 12 29  1  0  0  0
 12 30  1  0  0  0
 14 31  1  0  0  0
 14 32  1  0  0  0
 15 33  1  0  0  0
 17 34  1  0  0  0
 18 35  1  0  0  0
M  END
> <s_m_entry_id>
231

> <s_m_entry_name>
4yqn.1_ligand

> <s_m_subgroup_title>
Ligands

> <s_m_subgroupid>
Ligands

> <b_m_subgroup_collapsed>
0

$$$$
