4yqo_ligand
                    3D
 Schrodinger Suite 2021-1.
 42 43  0  0  1  0            999 V2000
  -21.2450   40.7310   -8.4750 C   0  0  0  0  0  0
  -20.0990   40.3190   -9.1140 C   0  0  0  0  0  0
  -19.8690   42.1050   -7.0600 C   0  0  0  0  0  0
  -21.1260   41.6450   -7.4110 C   0  0  0  0  0  0
  -18.8560   40.8140   -8.7110 C   0  0  0  0  0  0
  -22.3020   42.1650   -6.6670 C   0  0  0  0  0  0
  -18.3290   42.0530  -13.9840 C   0  0  0  0  0  0
  -17.2020   43.0200  -13.7800 C   0  0  0  0  0  0
  -18.1680   40.8130  -13.1360 C   0  0  0  0  0  0
  -16.9030   42.2610  -11.5150 C   0  0  0  0  0  0
  -17.1630   43.4890  -12.3350 C   0  0  1  0  0  0
  -18.0010   41.2500  -11.6920 C   0  0  2  0  0  0
  -16.0890   44.5410  -12.0760 C   0  0  0  0  0  0
  -17.6820   40.0640  -10.7880 C   0  0  0  0  0  0
  -18.7510   41.7040   -7.6590 N   0  0  0  0  0  0
  -22.1680   43.3700   -5.9300 N   0  0  0  0  0  0
  -16.0040   45.6420  -13.0050 N   0  3  0  0  0  0
  -17.6480   40.4050   -9.3700 N   0  0  0  0  0  0
  -23.3800   41.5870   -6.6800 O   0  0  0  0  0  0
  -22.2058   40.3539   -8.7928 H   0  0  0  0  0  0
  -20.1591   39.6121   -9.9283 H   0  0  0  0  0  0
  -19.8227   42.8250   -6.2563 H   0  0  0  0  0  0
  -18.3777   41.7695  -15.0354 H   0  0  0  0  0  0
  -19.2731   42.5396  -13.7392 H   0  0  0  0  0  0
  -17.3374   43.8791  -14.4370 H   0  0  0  0  0  0
  -16.2582   42.5354  -14.0300 H   0  0  0  0  0  0
  -17.2797   40.2679  -13.4552 H   0  0  0  0  0  0
  -19.0599   40.1930  -13.2267 H   0  0  0  0  0  0
  -16.8292   42.5361  -10.4629 H   0  0  0  0  0  0
  -15.9520   41.8199  -11.8136 H   0  0  0  0  0  0
  -18.1366   43.8987  -12.0660 H   0  0  0  0  0  0
  -18.9373   41.6963  -11.3569 H   0  0  0  0  0  0
  -15.1171   44.0519  -12.0105 H   0  0  0  0  0  0
  -16.2081   44.9331  -11.0660 H   0  0  0  0  0  0
  -16.7237   39.6342  -11.0798 H   0  0  0  0  0  0
  -18.4164   39.2756  -10.9529 H   0  0  0  0  0  0
  -22.9564   43.7391   -5.4179 H   0  0  0  0  0  0
  -21.2842   43.8587   -5.9175 H   0  0  0  0  0  0
  -15.2589   46.2634  -12.7241 H   0  0  0  0  0  0
  -15.8148   45.2874  -13.9316 H   0  0  0  0  0  0
  -16.8787   46.1469  -13.0104 H   0  0  0  0  0  0
  -16.7823   40.3549   -8.8521 H   0  0  0  0  0  0
  1  2  1  0  0  0
  1  4  2  0  0  0
  1 20  1  0  0  0
  2  5  2  0  0  0
  2 21  1  0  0  0
  3 15  2  0  0  0
  3  4  1  0  0  0
  3 22  1  0  0  0
  4  6  1  0  0  0
  5 18  1  0  0  0
  5 15  1  0  0  0
  6 19  2  0  0  0
  6 16  1  0  0  0
  7  8  1  0  0  0
  7  9  1  0  0  0
  7 23  1  0  0  0
  7 24  1  0  0  0
  8 11  1  0  0  0
  8 25  1  0  0  0
  8 26  1  0  0  0
  9 12  1  0  0  0
  9 27  1  0  0  0
  9 28  1  0  0  0
 10 11  1  0  0  0
 10 12  1  0  0  0
 10 29  1  0  0  0
 10 30  1  0  0  0
 11 13  1  0  0  0
 11 31  1  0  0  0
 12 14  1  0  0  0
 12 32  1  0  0  0
 13 17  1  0  0  0
 13 33  1  0  0  0
 13 34  1  0  0  0
 14 18  1  0  0  0
 14 35  1  0  0  0
 14 36  1  0  0  0
 16 37  1  0  0  0
 16 38  1  0  0  0
 17 39  1  0  0  0
 17 40  1  0  0  0
 17 41  1  0  0  0
 18 42  1  0  0  0
M  CHG  1  17   1
M  END
> <s_m_entry_id>
225

> <s_m_entry_name>
4yqo.1_ligand

> <s_m_subgroup_title>
Ligands

> <s_m_subgroupid>
Ligands

> <b_m_subgroup_collapsed>
0

$$$$
