4yqp_ligand
                    3D
 Schrodinger Suite 2021-1.
 43 45  0  0  1  0            999 V2000
  -20.3570   41.3270  -13.3370 C   0  0  0  0  0  0
  -19.5910   42.3280  -13.8700 C   0  0  0  0  0  0
  -21.3620   40.8610   -8.4020 C   0  0  0  0  0  0
  -19.8910   40.5940  -12.2800 C   0  0  0  0  0  0
  -18.3550   42.5860  -13.3460 C   0  0  0  0  0  0
  -20.2050   40.5610   -9.0720 C   0  0  0  0  0  0
  -20.1050   42.4700   -7.2160 C   0  0  0  0  0  0
  -21.2920   41.8430   -7.4550 C   0  0  0  0  0  0
  -18.6560   40.8590  -11.7510 C   0  0  0  0  0  0
  -17.8820   41.8560  -12.2880 C   0  0  0  0  0  0
  -19.0390   41.2310   -8.7790 C   0  0  0  0  0  0
  -22.4650   42.2330   -6.6930 C   0  0  0  0  0  0
  -15.6190   41.3030  -12.3420 C   0  0  0  0  0  0
  -16.3120   43.5090  -11.7620 C   0  0  0  0  0  0
  -14.4400   41.4560  -11.4190 C   0  0  0  0  0  0
  -15.0930   43.6480  -10.8830 C   0  0  0  0  0  0
  -18.1690   40.0560  -10.5990 C   0  0  0  0  0  0
  -18.9800   42.1860   -7.8560 N   0  0  0  0  0  0
  -16.6370   42.1140  -11.7470 N   0  0  0  0  0  0
  -22.2560   43.3380   -5.9460 N   0  0  0  0  0  0
  -17.8690   40.9090   -9.4750 N   0  0  0  0  0  0
  -23.4960   41.6050   -6.7590 O   0  0  0  0  0  0
  -14.0410   42.8130  -11.3370 O   0  0  0  0  0  0
  -21.3316   41.1142  -13.7508 H   0  0  0  0  0  0
  -19.9638   42.9094  -14.7003 H   0  0  0  0  0  0
  -22.2731   40.3291   -8.6329 H   0  0  0  0  0  0
  -20.4974   39.8046  -11.8612 H   0  0  0  0  0  0
  -17.7433   43.3706  -13.7663 H   0  0  0  0  0  0
  -20.2052   39.7957   -9.8340 H   0  0  0  0  0  0
  -20.1150   43.2372   -6.4559 H   0  0  0  0  0  0
  -15.3642   41.7056  -13.3224 H   0  0  0  0  0  0
  -15.9425   40.2621  -12.3444 H   0  0  0  0  0  0
  -17.1360   44.0771  -11.3302 H   0  0  0  0  0  0
  -16.0611   43.8111  -12.7788 H   0  0  0  0  0  0
  -13.6092   40.8551  -11.7888 H   0  0  0  0  0  0
  -14.7075   41.0957  -10.4257 H   0  0  0  0  0  0
  -15.3520   43.3808   -9.8585 H   0  0  0  0  0  0
  -14.7597   44.6858  -10.8862 H   0  0  0  0  0  0
  -17.2715   39.5105  -10.8904 H   0  0  0  0  0  0
  -18.9323   39.3327  -10.3122 H   0  0  0  0  0  0
  -22.9999   43.7071   -5.3712 H   0  0  0  0  0  0
  -21.3557   43.7955   -5.9620 H   0  0  0  0  0  0
  -16.9793   41.2697   -9.1613 H   0  0  0  0  0  0
  1  2  2  0  0  0
  1  4  1  0  0  0
  1 24  1  0  0  0
  2  5  1  0  0  0
  2 25  1  0  0  0
  3  6  1  0  0  0
  3  8  2  0  0  0
  3 26  1  0  0  0
  4  9  2  0  0  0
  4 27  1  0  0  0
  5 10  2  0  0  0
  5 28  1  0  0  0
  6 11  2  0  0  0
  6 29  1  0  0  0
  7 18  2  0  0  0
  7  8  1  0  0  0
  7 30  1  0  0  0
  8 12  1  0  0  0
  9 10  1  0  0  0
  9 17  1  0  0  0
 10 19  1  0  0  0
 11 21  1  0  0  0
 11 18  1  0  0  0
 12 22  2  0  0  0
 12 20  1  0  0  0
 13 19  1  0  0  0
 13 15  1  0  0  0
 13 31  1  0  0  0
 13 32  1  0  0  0
 14 19  1  0  0  0
 14 16  1  0  0  0
 14 33  1  0  0  0
 14 34  1  0  0  0
 15 23  1  0  0  0
 15 35  1  0  0  0
 15 36  1  0  0  0
 16 23  1  0  0  0
 16 37  1  0  0  0
 16 38  1  0  0  0
 17 21  1  0  0  0
 17 39  1  0  0  0
 17 40  1  0  0  0
 20 41  1  0  0  0
 20 42  1  0  0  0
 21 43  1  0  0  0
M  END
> <s_m_entry_id>
222

> <s_m_entry_name>
4yqp.1_ligand

> <s_m_subgroup_title>
Ligands

> <s_m_subgroupid>
Ligands

> <b_m_subgroup_collapsed>
0

$$$$
