4yqq_ligand
                    3D
 Schrodinger Suite 2021-1.
 48 50  0  0  1  0            999 V2000
  -20.4880   40.6460  -13.2430 C   0  0  0  0  0  0
  -20.2180   41.8770  -13.8350 C   0  0  0  0  0  0
  -21.2910   41.1650   -8.3330 C   0  0  0  0  0  0
  -19.6590   40.1590  -12.2470 C   0  0  0  0  0  0
  -19.1160   42.6090  -13.4370 C   0  0  0  0  0  0
  -20.1860   40.7840   -9.0670 C   0  0  0  0  0  0
  -19.8930   42.7700   -7.1800 C   0  0  0  0  0  0
  -21.1520   42.1830   -7.3760 C   0  0  0  0  0  0
  -18.5410   40.8850  -11.8170 C   0  0  0  0  0  0
  -18.2650   42.1180  -12.4370 C   0  0  0  0  0  0
  -18.9370   41.4500   -8.8180 C   0  0  0  0  0  0
  -22.3320   42.6110   -6.6160 C   0  0  0  0  0  0
  -15.8390   42.5200  -12.7450 C   0  0  0  0  0  0
  -17.3440   44.2400  -11.5540 C   0  0  0  0  0  0
  -14.6680   43.2640  -12.1380 C   0  0  0  0  0  0
  -16.0610   44.8190  -11.0110 C   0  0  0  0  0  0
  -13.7980   45.4270  -11.5420 C   0  0  0  0  0  0
  -17.7310   40.3130  -10.6820 C   0  0  0  0  0  0
  -18.7860   42.4390   -7.8570 N   0  0  0  0  0  0
  -17.1450   42.9230  -12.1930 N   0  0  0  0  0  0
  -14.9800   44.6780  -11.9750 N   0  3  0  0  0  0
  -22.2230   43.8110   -5.9450 N   0  0  0  0  0  0
  -17.7920   41.2310   -9.5350 N   0  0  0  0  0  0
  -23.3820   41.9570   -6.5620 O   0  0  0  0  0  0
  -21.3447   40.0703  -13.5608 H   0  0  0  0  0  0
  -20.8702   42.2602  -14.6058 H   0  0  0  0  0  0
  -22.2425   40.6820   -8.4994 H   0  0  0  0  0  0
  -19.8696   39.2044  -11.7879 H   0  0  0  0  0  0
  -18.9072   43.5637  -13.8967 H   0  0  0  0  0  0
  -20.2728   40.0026   -9.8074 H   0  0  0  0  0  0
  -19.8530   43.5384   -6.4221 H   0  0  0  0  0  0
  -15.8414   42.6686  -13.8248 H   0  0  0  0  0  0
  -15.7006   41.4485  -12.6010 H   0  0  0  0  0  0
  -18.0691   44.1447  -10.7458 H   0  0  0  0  0  0
  -17.7763   44.9318  -12.2769 H   0  0  0  0  0  0
  -13.7961   43.1568  -12.7832 H   0  0  0  0  0  0
  -14.4270   42.8312  -11.1670 H   0  0  0  0  0  0
  -15.7932   44.3053  -10.0877 H   0  0  0  0  0  0
  -16.2076   45.8745  -10.7819 H   0  0  0  0  0  0
  -14.0562   46.4797  -11.4273 H   0  0  0  0  0  0
  -13.4472   45.0335  -10.5880 H   0  0  0  0  0  0
  -13.0098   45.3259  -12.2880 H   0  0  0  0  0  0
  -16.6946   40.1959  -10.9986 H   0  0  0  0  0  0
  -18.1417   39.3451  -10.3946 H   0  0  0  0  0  0
  -15.2887   45.0458  -12.8635 H   0  0  0  0  0  0
  -23.0014   44.1596   -5.4040 H   0  0  0  0  0  0
  -21.3648   44.3412   -5.9946 H   0  0  0  0  0  0
  -16.9392   41.7101   -9.2834 H   0  0  0  0  0  0
  1  2  2  0  0  0
  1  4  1  0  0  0
  1 25  1  0  0  0
  2  5  1  0  0  0
  2 26  1  0  0  0
  3  6  1  0  0  0
  3  8  2  0  0  0
  3 27  1  0  0  0
  4  9  2  0  0  0
  4 28  1  0  0  0
  5 10  2  0  0  0
  5 29  1  0  0  0
  6 11  2  0  0  0
  6 30  1  0  0  0
  7 19  2  0  0  0
  7  8  1  0  0  0
  7 31  1  0  0  0
  8 12  1  0  0  0
  9 10  1  0  0  0
  9 18  1  0  0  0
 10 20  1  0  0  0
 11 23  1  0  0  0
 11 19  1  0  0  0
 12 24  2  0  0  0
 12 22  1  0  0  0
 13 20  1  0  0  0
 13 15  1  0  0  0
 13 32  1  0  0  0
 13 33  1  0  0  0
 14 20  1  0  0  0
 14 16  1  0  0  0
 14 34  1  0  0  0
 14 35  1  0  0  0
 15 21  1  0  0  0
 15 36  1  0  0  0
 15 37  1  0  0  0
 16 21  1  0  0  0
 16 38  1  0  0  0
 16 39  1  0  0  0
 17 21  1  0  0  0
 17 40  1  0  0  0
 17 41  1  0  0  0
 17 42  1  0  0  0
 18 23  1  0  0  0
 18 43  1  0  0  0
 18 44  1  0  0  0
 21 45  1  0  0  0
 22 46  1  0  0  0
 22 47  1  0  0  0
 23 48  1  0  0  0
M  CHG  1  21   1
M  END
> <s_m_entry_id>
219

> <s_m_entry_name>
4yqq.1_ligand

> <s_m_subgroup_title>
Ligands

> <s_m_subgroupid>
Ligands

> <b_m_subgroup_collapsed>
0

$$$$
