4yqr_ligand2
                    3D
 Schrodinger Suite 2021-1.
 28 29  0  0  1  0            999 V2000
  -19.0230   41.0230   -9.3820 N   0  0  0  0  0  0
  -23.0450   41.4180   -6.8600 N   0  0  0  0  0  0
  -17.3430   41.3710  -11.1130 C   0  0  0  0  0  0
  -19.6400   41.5960   -8.2590 C   0  0  0  0  0  0
  -21.0120   41.2610   -7.8920 C   0  0  0  0  0  0
  -21.8560   42.0820   -6.9890 C   0  0  0  0  0  0
  -19.7270   40.0490  -10.2680 C   0  0  0  0  0  0
  -17.6070   41.2800   -9.6390 C   0  0  0  0  0  0
  -19.2760   40.1180  -11.7020 C   0  0  0  0  0  0
  -17.3980   40.1700  -13.1680 C   0  0  0  0  0  0
  -21.7400   40.2000   -8.2320 N   0  0  0  0  0  0
  -17.8220   40.1760  -11.7900 N   0  0  0  0  0  0
  -21.4920   43.2630   -6.4300 N   0  0  0  0  0  0
  -19.0160   42.3590   -7.5720 O   0  0  0  0  0  0
  -22.9230   40.2770   -7.6390 O   0  0  0  0  0  0
  -17.8500   42.2462  -11.5192 H   0  0  0  0  0  0
  -16.2721   41.4804  -11.2839 H   0  0  0  0  0  0
  -20.8015   40.2250  -10.2177 H   0  0  0  0  0  0
  -19.5741   39.0386   -9.8887 H   0  0  0  0  0  0
  -17.0087   40.4751   -9.2121 H   0  0  0  0  0  0
  -17.3148   42.2143   -9.1596 H   0  0  0  0  0  0
  -19.7037   41.0021  -12.1748 H   0  0  0  0  0  0
  -19.6373   39.2408  -12.2387 H   0  0  0  0  0  0
  -17.7658   39.2685  -13.6579 H   0  0  0  0  0  0
  -17.7980   41.0477  -13.6756 H   0  0  0  0  0  0
  -16.3091   40.1893  -13.2137 H   0  0  0  0  0  0
  -20.5744   43.6451   -6.6093 H   0  0  0  0  0  0
  -22.1385   43.7603   -5.8344 H   0  0  0  0  0  0
  1  7  1  0  0  0
  1  8  1  0  0  0
  1  4  1  0  0  0
  2 15  1  0  0  0
  2  6  2  0  0  0
  3 12  1  0  0  0
  3  8  1  0  0  0
  3 16  1  0  0  0
  3 17  1  0  0  0
  4  5  1  0  0  0
  4 14  2  0  0  0
  5 11  2  0  0  0
  5  6  1  0  0  0
  6 13  1  0  0  0
  7  9  1  0  0  0
  7 18  1  0  0  0
  7 19  1  0  0  0
  8 20  1  0  0  0
  8 21  1  0  0  0
  9 12  1  0  0  0
  9 22  1  0  0  0
  9 23  1  0  0  0
 10 12  1  0  0  0
 10 24  1  0  0  0
 10 25  1  0  0  0
 10 26  1  0  0  0
 11 15  1  0  0  0
 13 27  1  0  0  0
 13 28  1  0  0  0
M  END
> <s_m_entry_id>
216

> <s_m_entry_name>
4yqr.1_ligand2

> <s_m_subgroup_title>
Ligands

> <s_m_subgroupid>
Ligands

> <b_m_subgroup_collapsed>
0

$$$$
