4yqs_ligand
                    3D
 Schrodinger Suite 2021-1.
 26 27  0  0  1  0            999 V2000
  -19.5810   39.8530  -11.1360 C   0  0  0  0  0  0
  -20.2500   40.3680  -10.0470 C   0  0  0  0  0  0
  -19.5270   41.1150   -9.1460 C   0  0  0  0  0  0
  -18.1730   41.3700   -9.3210 C   0  0  0  0  0  0
  -17.5020   40.8460  -10.4100 C   0  0  0  0  0  0
  -22.3470   40.7990   -8.1880 N   0  0  0  0  0  0
  -23.4950   41.0230   -7.5430 C   0  0  0  0  0  0
  -22.1460   42.3320   -6.5900 C   0  0  0  0  0  0
  -18.2310   40.0880  -11.3170 C   0  0  0  0  0  0
  -20.1470   41.7430   -7.9690 C   0  0  0  0  0  0
  -16.3400   39.9590  -12.6530 C   0  0  0  0  0  0
  -23.4070   41.9500   -6.5520 N   0  0  0  0  0  0
  -21.4920   41.6410   -7.5810 N   0  0  0  0  0  0
  -21.4950   43.2380   -5.8200 N   0  0  0  0  0  0
  -19.3910   42.4900   -7.3520 O   0  0  0  0  0  0
  -17.6860   39.5110  -12.4610 O   0  0  0  0  0  0
  -20.1266   39.2583  -11.8537 H   0  0  0  0  0  0
  -21.3063   40.1798   -9.9237 H   0  0  0  0  0  0
  -17.6413   41.9793   -8.6051 H   0  0  0  0  0  0
  -16.4452   41.0314  -10.5335 H   0  0  0  0  0  0
  -24.3875   40.4849   -7.8264 H   0  0  0  0  0  0
  -15.9281   39.4990  -13.5512 H   0  0  0  0  0  0
  -16.3297   41.0434  -12.7633 H   0  0  0  0  0  0
  -15.7359   39.6762  -11.7909 H   0  0  0  0  0  0
  -21.9930   43.7362   -5.0962 H   0  0  0  0  0  0
  -20.5120   43.4148   -5.9701 H   0  0  0  0  0  0
  1  9  2  0  0  0
  1  2  1  0  0  0
  1 17  1  0  0  0
  2  3  2  0  0  0
  2 18  1  0  0  0
  3  4  1  0  0  0
  3 10  1  0  0  0
  4  5  2  0  0  0
  4 19  1  0  0  0
  5  9  1  0  0  0
  5 20  1  0  0  0
  6 13  1  0  0  0
  6  7  2  0  0  0
  7 12  1  0  0  0
  7 21  1  0  0  0
  8 13  1  0  0  0
  8 12  2  0  0  0
  8 14  1  0  0  0
  9 16  1  0  0  0
 10 13  1  0  0  0
 10 15  2  0  0  0
 11 16  1  0  0  0
 11 22  1  0  0  0
 11 23  1  0  0  0
 11 24  1  0  0  0
 14 25  1  0  0  0
 14 26  1  0  0  0
M  END
> <s_m_entry_id>
212

> <s_m_entry_name>
4yqs.1_ligand

> <s_m_subgroup_title>
Ligands

> <s_m_subgroupid>
Ligands

> <b_m_subgroup_collapsed>
0

$$$$
