4yqt_ligand
                    3D
 Schrodinger Suite 2021-1.
 33 33  0  0  1  0            999 V2000
  -16.5930   41.7490  -12.0450 C   0  0  0  0  0  0
  -17.6360   39.9600  -10.6370 C   0  0  0  0  0  0
  -18.6890   41.1160   -8.7850 C   0  0  0  0  0  0
  -20.8990   41.6860   -7.3610 C   0  0  0  0  0  0
  -21.9420   43.2040   -5.8560 N   0  0  0  0  0  0
  -19.7270   42.3730   -7.1810 C   0  0  0  0  0  0
  -20.8950   40.6800   -8.3090 C   0  0  0  0  0  0
  -22.0980   42.0560   -6.5950 C   0  0  0  0  0  0
  -17.5170   39.6980  -13.0620 C   0  0  0  0  0  0
  -19.0360   41.3670  -12.1010 C   0  0  0  0  0  0
  -17.6870   40.7080  -11.9540 C   0  0  0  0  0  0
  -18.6180   42.1020   -7.8700 N   0  0  0  0  0  0
  -19.7910   40.3900   -9.0100 N   0  0  0  0  0  0
  -22.0570   39.9440   -8.5300 N   0  0  0  0  0  0
  -17.5030   40.8630   -9.5060 N   0  0  0  0  0  0
  -23.1580   41.4480   -6.7000 O   0  0  0  0  0  0
  -16.6607   42.2653  -13.0026 H   0  0  0  0  0  0
  -16.7082   42.4696  -11.2354 H   0  0  0  0  0  0
  -15.6207   41.2632  -11.9627 H   0  0  0  0  0  0
  -16.7963   39.2651  -10.6469 H   0  0  0  0  0  0
  -18.5426   39.3659  -10.5220 H   0  0  0  0  0  0
  -22.7053   43.5489   -5.2917 H   0  0  0  0  0  0
  -21.0640   43.7028   -5.8772 H   0  0  0  0  0  0
  -19.6752   43.1719   -6.4561 H   0  0  0  0  0  0
  -18.3057   38.9486  -12.9954 H   0  0  0  0  0  0
  -17.5764   40.2024  -14.0264 H   0  0  0  0  0  0
  -16.5460   39.2123  -12.9658 H   0  0  0  0  0  0
  -19.8191   40.6117  -12.0345 H   0  0  0  0  0  0
  -19.1711   42.1006  -11.3063 H   0  0  0  0  0  0
  -19.0939   41.8655  -13.0686 H   0  0  0  0  0  0
  -22.0643   39.2069   -9.2205 H   0  0  0  0  0  0
  -22.8922   40.1475   -7.9998 H   0  0  0  0  0  0
  -16.6373   41.2999   -9.2235 H   0  0  0  0  0  0
  1 11  1  0  0  0
  1 17  1  0  0  0
  1 18  1  0  0  0
  1 19  1  0  0  0
  2 11  1  0  0  0
  2 15  1  0  0  0
  2 20  1  0  0  0
  2 21  1  0  0  0
  3 15  1  0  0  0
  3 13  1  0  0  0
  3 12  2  0  0  0
  4  7  1  0  0  0
  4  6  2  0  0  0
  4  8  1  0  0  0
  5  8  1  0  0  0
  5 22  1  0  0  0
  5 23  1  0  0  0
  6 12  1  0  0  0
  6 24  1  0  0  0
  7 13  2  0  0  0
  7 14  1  0  0  0
  8 16  2  0  0  0
  9 11  1  0  0  0
  9 25  1  0  0  0
  9 26  1  0  0  0
  9 27  1  0  0  0
 10 11  1  0  0  0
 10 28  1  0  0  0
 10 29  1  0  0  0
 10 30  1  0  0  0
 14 31  1  0  0  0
 14 32  1  0  0  0
 15 33  1  0  0  0
M  END
> <s_m_entry_id>
209

> <s_m_entry_name>
4yqt.1_ligand

> <s_m_subgroup_title>
Ligands

> <s_m_subgroupid>
Ligands

> <b_m_subgroup_collapsed>
0

$$$$
