4yvg_ligand
                    3D
 Schrodinger Suite 2021-1.
 50 52  0  0  1  0            999 V2000
   47.8340    9.3900   14.1270 N   0  3  0  0  0  0
   47.4430    8.0150   13.8070 C   0  0  2  0  0  0
   48.5950    7.1400   13.2310 C   0  0  0  0  0  0
   48.7100    5.9120   13.4740 O   0  5  0  0  0  0
   49.4340    7.6350   12.4520 O   0  0  0  0  0  0
   46.3820    8.0310   12.6860 C   0  0  0  0  0  0
   45.1950    7.0730   12.8740 C   0  0  0  0  0  0
   44.4320    6.9320   11.2570 S   0  3  2  0  0  0
   43.7850    8.6100   11.2230 C   0  0  0  0  0  0
   42.8730    6.0740   11.6920 C   0  0  0  0  0  0
   42.8190    4.5480   11.6090 C   0  0  1  0  0  0
   43.1510    4.1610   10.2700 O   0  0  0  0  0  0
   43.8790    4.0360   12.5390 C   0  0  1  0  0  0
   43.3880    3.0180   13.3630 O   0  0  0  0  0  0
   44.8810    3.4180   11.6320 C   0  0  1  0  0  0
   45.8140    2.4350   12.2410 O   0  0  0  0  0  0
   44.1120    3.1480   10.2800 C   0  0  2  0  0  0
   45.0630    3.4040    9.1720 N   0  0  0  0  0  0
   45.4360    4.6340    8.6450 C   0  0  0  0  0  0
   46.3100    4.3890    7.6610 N   0  0  0  0  0  0
   46.5210    3.0400    7.5430 C   0  0  0  0  0  0
   47.3750    2.3230    6.7290 C   0  0  0  0  0  0
   48.2110    2.9130    5.8350 N   0  0  0  0  0  0
   47.3740    0.9760    6.8750 N   0  0  0  0  0  0
   46.5350    0.4050    7.7960 C   0  0  0  0  0  0
   45.6870    1.1090    8.6310 N   0  0  0  0  0  0
   45.7290    2.4330    8.5130 C   0  0  0  0  0  0
   48.5283    9.3811   14.8605 H   0  0  0  0  0  0
   48.2197    9.8310   13.3043 H   0  0  0  0  0  0
   47.0239    9.9074   14.4372 H   0  0  0  0  0  0
   47.0295    7.5366   14.6948 H   0  0  0  0  0  0
   46.8645    7.8229   11.7310 H   0  0  0  0  0  0
   46.0078    9.0469   12.5593 H   0  0  0  0  0  0
   44.4830    7.5120   13.5729 H   0  0  0  0  0  0
   45.5644    6.0962   13.1861 H   0  0  0  0  0  0
   43.2509    8.7751   10.2873 H   0  0  0  0  0  0
   43.1025    8.7538   12.0606 H   0  0  0  0  0  0
   44.6090    9.3193   11.3005 H   0  0  0  0  0  0
   42.0597    6.4914   11.0983 H   0  0  0  0  0  0
   42.5607    6.3872   12.6882 H   0  0  0  0  0  0
   41.8350    4.1745   11.8925 H   0  0  0  0  0  0
   44.3179    4.8439   13.1244 H   0  0  0  0  0  0
   44.0872    2.7116   13.9451 H   0  0  0  0  0  0
   45.5339    4.2539   11.3808 H   0  0  0  0  0  0
   46.4128    2.1023   11.5684 H   0  0  0  0  0  0
   43.6735    2.1510   10.2368 H   0  0  0  0  0  0
   45.0192    5.5440    9.0506 H   0  0  0  0  0  0
   48.8180    2.3457    5.2607 H   0  0  0  0  0  0
   48.2254    3.9189    5.7447 H   0  0  0  0  0  0
   46.5057   -0.6689    7.9071 H   0  0  0  0  0  0
  1  2  1  0  0  0
  1 28  1  0  0  0
  1 29  1  0  0  0
  1 30  1  0  0  0
  2  6  1  0  0  0
  2  3  1  0  0  0
  2 31  1  0  0  0
  3  5  2  0  0  0
  3  4  1  0  0  0
  6  7  1  0  0  0
  6 32  1  0  0  0
  6 33  1  0  0  0
  7  8  1  0  0  0
  7 34  1  0  0  0
  7 35  1  0  0  0
  8  9  1  0  0  0
  8 10  1  0  0  0
  9 36  1  0  0  0
  9 37  1  0  0  0
  9 38  1  0  0  0
 10 11  1  0  0  0
 10 39  1  0  0  0
 10 40  1  0  0  0
 11 12  1  0  0  0
 11 13  1  0  0  0
 11 41  1  0  0  0
 12 17  1  0  0  0
 13 15  1  0  0  0
 13 14  1  0  0  0
 13 42  1  0  0  0
 14 43  1  0  0  0
 15 17  1  0  0  0
 15 16  1  0  0  0
 15 44  1  0  0  0
 16 45  1  0  0  0
 17 18  1  0  0  0
 17 46  1  0  0  0
 18 27  1  0  0  0
 18 19  1  0  0  0
 19 20  2  0  0  0
 19 47  1  0  0  0
 20 21  1  0  0  0
 21 22  1  0  0  0
 21 27  2  0  0  0
 22 23  1  0  0  0
 22 24  2  0  0  0
 23 48  1  0  0  0
 23 49  1  0  0  0
 24 25  1  0  0  0
 25 26  2  0  0  0
 25 50  1  0  0  0
 26 27  1  0  0  0
M  CHG  3   1   1   4  -1   8   1
M  END
> <s_m_entry_id>
203

> <s_m_entry_name>
4yvg.1_ligand

> <s_m_subgroup_title>
Ligands

> <s_m_subgroupid>
Ligands

> <b_m_subgroup_collapsed>
0

$$$$
