4yvh - preprocessed_ligand1
                    3D
 Schrodinger Suite 2021-1.
 50 52  0  0  1  0            999 V2000
   30.6880   18.0810   15.7230 N   0  0  0  0  0  0
   29.4890   17.4820   16.3250 C   0  0  2  0  0  0
   28.6570   18.6240   16.9150 C   0  0  0  0  0  0
   27.4180   18.5630   16.7560 O   0  0  0  0  0  0
   29.2760   19.5410   17.4970 O   0  0  0  0  0  0
   29.9160   16.5260   17.4430 C   0  0  0  0  0  0
   30.2710   15.1170   16.9530 C   0  0  0  0  0  0
   30.7160   14.2560   18.1400 C   0  0  2  0  0  0
   32.0960   14.6030   18.5250 N   0  0  0  0  0  0
   30.6490   12.7620   17.8070 C   0  0  0  0  0  0
   29.2930   12.1460   18.1700 C   0  0  1  0  0  0
   29.0610   12.2280   19.5820 O   0  0  0  0  0  0
   28.0910   12.8650   17.5580 C   0  0  1  0  0  0
   27.9470   12.4100   16.2100 O   0  0  0  0  0  0
   26.9670   12.3170   18.4410 C   0  0  1  0  0  0
   26.5120   11.0350   17.9950 O   0  0  0  0  0  0
   27.6430   12.1680   19.8080 C   0  0  2  0  0  0
   27.3140   13.2760   20.7350 N   0  0  0  0  0  0
   28.1490   14.2070   21.1950 C   0  0  0  0  0  0
   27.5080   14.9920   22.0590 N   0  0  0  0  0  0
   26.2520   14.5610   22.1470 C   0  0  0  0  0  0
   25.1450   14.9570   22.8860 C   0  0  0  0  0  0
   25.2190   15.9970   23.7170 N   0  0  0  0  0  0
   24.0060   14.2640   22.7400 N   0  0  0  0  0  0
   23.9250   13.2310   21.9170 C   0  0  0  0  0  0
   24.9570   12.8240   21.1960 N   0  0  0  0  0  0
   26.1260   13.4700   21.2970 C   0  0  0  0  0  0
   31.2631   17.3539   15.3221 H   0  0  0  0  0  0
   30.4136   18.7300   14.9994 H   0  0  0  0  0  0
   28.9139   16.9468   15.5694 H   0  0  0  0  0  0
   28.6512   20.1936   17.8216 H   0  0  0  0  0  0
   29.1212   16.4608   18.1860 H   0  0  0  0  0  0
   30.7682   16.9492   17.9747 H   0  0  0  0  0  0
   31.0804   15.1788   16.2256 H   0  0  0  0  0  0
   29.3972   14.6648   16.4839 H   0  0  0  0  0  0
   30.0563   14.4562   18.9843 H   0  0  0  0  0  0
   32.3816   14.0316   19.3073 H   0  0  0  0  0  0
   32.7154   14.4381   17.7444 H   0  0  0  0  0  0
   31.4406   12.2359   18.3406 H   0  0  0  0  0  0
   30.8390   12.6189   16.7433 H   0  0  0  0  0  0
   29.2800   11.0999   17.8639 H   0  0  0  0  0  0
   28.1787   13.9495   17.6230 H   0  0  0  0  0  0
   27.1964   12.8482   15.8023 H   0  0  0  0  0  0
   26.1387   13.0235   18.4947 H   0  0  0  0  0  0
   25.8097   10.7257   18.5718 H   0  0  0  0  0  0
   27.3749   11.2115   20.2567 H   0  0  0  0  0  0
   29.1728   14.2311   20.8521 H   0  0  0  0  0  0
   24.4077   16.2765   24.2497 H   0  0  0  0  0  0
   26.0864   16.5054   23.8138 H   0  0  0  0  0  0
   22.9949   12.6911   21.8179 H   0  0  0  0  0  0
  1  2  1  0  0  0
  1 28  1  0  0  0
  1 29  1  0  0  0
  2  3  1  0  0  0
  2  6  1  0  0  0
  2 30  1  0  0  0
  3  4  2  0  0  0
  3  5  1  0  0  0
  5 31  1  0  0  0
  6  7  1  0  0  0
  6 32  1  0  0  0
  6 33  1  0  0  0
  7  8  1  0  0  0
  7 34  1  0  0  0
  7 35  1  0  0  0
  8  9  1  0  0  0
  8 10  1  0  0  0
  8 36  1  0  0  0
  9 37  1  0  0  0
  9 38  1  0  0  0
 10 11  1  0  0  0
 10 39  1  0  0  0
 10 40  1  0  0  0
 11 12  1  0  0  0
 11 13  1  0  0  0
 11 41  1  0  0  0
 12 17  1  0  0  0
 13 14  1  0  0  0
 13 15  1  0  0  0
 13 42  1  0  0  0
 14 43  1  0  0  0
 15 16  1  0  0  0
 15 17  1  0  0  0
 15 44  1  0  0  0
 16 45  1  0  0  0
 17 18  1  0  0  0
 17 46  1  0  0  0
 18 19  1  0  0  0
 18 27  1  0  0  0
 19 20  2  0  0  0
 19 47  1  0  0  0
 20 21  1  0  0  0
 21 22  1  0  0  0
 21 27  2  0  0  0
 22 23  1  0  0  0
 22 24  2  0  0  0
 23 48  1  0  0  0
 23 49  1  0  0  0
 24 25  1  0  0  0
 25 26  2  0  0  0
 25 50  1  0  0  0
 26 27  1  0  0  0
M  END
> <s_m_entry_id>
38

> <s_m_entry_name>
4yvh_ligand1

> <s_ppw_entry_id_backup>
36

> <b_ppw_prepared>
1

> <s_ppw_prepared_with_version>
2021-1

> <b_ppw_assigned_bond_orders>
1

> <b_ppw_added_hydrogens>
1

> <b_ppw_treated_metals>
1

> <b_ppw_created_disulfur>
1

> <s_pdb_PDB_TITLE>
CRYSTAL STRUCTURE OF H. INFLUENZAE TRMD IN COMPLEX WITH SINEFUNGIN

> <s_pdb_PDB_ID>
4YVH

> <r_pdb_PDB_CRYST1_a>
93.766

> <r_pdb_PDB_CRYST1_b>
93.766

> <r_pdb_PDB_CRYST1_c>
177.907

> <r_pdb_PDB_CRYST1_alpha>
90

> <r_pdb_PDB_CRYST1_beta>
90

> <r_pdb_PDB_CRYST1_gamma>
120

> <s_pdb_PDB_CRYST1_Space_Group>
H 3 2

> <i_pdb_PDB_CRYST1_z>
18

> <s_pdb_PDB_CLASSIFICATION>
TRANSFERASE

> <s_pdb_PDB_DEPOSITION_DATE>
20-MAR-15

> <s_pdb_PDB_format_version>
3.30

> <r_pdb_PDB_R>
0.186

> <r_pdb_PDB_Rfree>
0.219

> <r_pdb_PDB_RESOLUTION>
1.6

> <s_pdb_PDB_EXPDTA>
X-RAY DIFFRACTION

> <r_pdb_PDB_EXPDTA_TEMPERATURE>
100

> <s_pdb_PDB_REMARK_350_Biomolecule_1_Transform_1_Chains>
A

> <s_pdb_PDB_REMARK_350_Biomolecule_1_Transform_1_Matrix_1>
1.000000 0.000000 0.000000   0.000000;0.000000 1.000000 0.000000   0.000000;0.000000 0.000000 1.000000   0.000000

> <s_pdb_PDB_REMARK_350_Biomolecule_1_Transform_1_Matrix_2>
-0.500000 -0.866025 0.000000   46.883000;-0.866025 0.500000 0.000000   27.067910;0.000000 0.000000 -1.000000   59.302330

> <s_m_subgroup_title>
4yvh - preprocessed_split_by_structure

> <s_m_subgroupid>
4yvh - preprocessed_split_by_structure

> <b_m_subgroup_collapsed>
0

$$$$
