4yvi_ligand1
                    3D
 Schrodinger Suite 2021-1.
 51 53  0  0  1  0            999 V2000
  -33.8150    3.2180    0.1190 N   0  3  0  0  0  0
  -34.4410    4.0450   -0.9240 C   0  0  2  0  0  0
  -34.4060    3.2760   -2.2450 C   0  0  0  0  0  0
  -35.3840    3.4380   -3.0080 O   0  5  0  0  0  0
  -33.4020    2.5640   -2.4660 O   0  0  0  0  0  0
  -33.6410    5.3370   -1.1020 C   0  0  0  0  0  0
  -34.0850    6.4180   -0.1140 C   0  0  0  0  0  0
  -33.2510    7.6900   -0.2830 C   0  0  2  0  0  0
  -31.9340    7.5060    0.3430 N   0  3  0  0  0  0
  -33.9750    8.8700    0.3680 C   0  0  0  0  0  0
  -34.9120    9.5180   -0.6550 C   0  0  1  0  0  0
  -34.1970   10.1880   -1.7040 O   0  0  0  0  0  0
  -35.7560    8.4890   -1.4030 C   0  0  1  0  0  0
  -36.8300    8.0860   -0.5500 O   0  0  0  0  0  0
  -36.2860    9.3910   -2.5160 C   0  0  1  0  0  0
  -37.3450   10.2020   -2.0000 O   0  0  0  0  0  0
  -35.0670   10.2580   -2.8480 C   0  0  2  0  0  0
  -34.2740    9.7410   -3.9870 N   0  0  0  0  0  0
  -33.0990    9.1230   -3.8950 C   0  0  0  0  0  0
  -32.6430    8.8330   -5.1120 N   0  0  0  0  0  0
  -33.5380    9.2650   -5.9940 C   0  0  0  0  0  0
  -33.6180    9.2340   -7.3810 C   0  0  0  0  0  0
  -32.6650    8.6580   -8.1100 N   0  0  0  0  0  0
  -34.6920    9.7720   -7.9750 N   0  0  0  0  0  0
  -35.6600   10.3180   -7.2600 C   0  0  0  0  0  0
  -35.6210   10.3610   -5.9400 N   0  0  0  0  0  0
  -34.5770    9.8450   -5.2780 C   0  0  0  0  0  0
  -33.8314    3.7148    0.9982 H   0  0  0  0  0  0
  -34.3247    2.3511    0.2131 H   0  0  0  0  0  0
  -32.8584    3.0194   -0.1371 H   0  0  0  0  0  0
  -35.4708    4.2760   -0.6517 H   0  0  0  0  0  0
  -33.7660    5.7035   -2.1209 H   0  0  0  0  0  0
  -32.5804    5.1294   -0.9599 H   0  0  0  0  0  0
  -33.9763    6.0454    0.9046 H   0  0  0  0  0  0
  -35.1374    6.6496   -0.2782 H   0  0  0  0  0  0
  -33.1178    7.8930   -1.3456 H   0  0  0  0  0  0
  -31.3864    8.3470    0.2297 H   0  0  0  0  0  0
  -32.0526    7.3121    1.3271 H   0  0  0  0  0  0
  -31.4567    6.7322   -0.0970 H   0  0  0  0  0  0
  -33.2429    9.6036    0.7056 H   0  0  0  0  0  0
  -34.5563    8.5146    1.2188 H   0  0  0  0  0  0
  -35.5670   10.2280   -0.1500 H   0  0  0  0  0  0
  -35.1709    7.6490   -1.7774 H   0  0  0  0  0  0
  -37.3734    7.4375   -1.0036 H   0  0  0  0  0  0
  -36.6112    8.8110   -3.3797 H   0  0  0  0  0  0
  -37.6814   10.7709   -2.6963 H   0  0  0  0  0  0
  -35.3714   11.2883   -3.0324 H   0  0  0  0  0  0
  -32.6640    8.9317   -2.9252 H   0  0  0  0  0  0
  -32.7386    8.6442   -9.1172 H   0  0  0  0  0  0
  -31.8683    8.2347   -7.6560 H   0  0  0  0  0  0
  -36.5190   10.7482   -7.7534 H   0  0  0  0  0  0
  1  2  1  0  0  0
  1 28  1  0  0  0
  1 29  1  0  0  0
  1 30  1  0  0  0
  2  3  1  0  0  0
  2  6  1  0  0  0
  2 31  1  0  0  0
  3  4  1  0  0  0
  3  5  2  0  0  0
  6  7  1  0  0  0
  6 32  1  0  0  0
  6 33  1  0  0  0
  7  8  1  0  0  0
  7 34  1  0  0  0
  7 35  1  0  0  0
  8  9  1  0  0  0
  8 10  1  0  0  0
  8 36  1  0  0  0
  9 37  1  0  0  0
  9 38  1  0  0  0
  9 39  1  0  0  0
 10 11  1  0  0  0
 10 40  1  0  0  0
 10 41  1  0  0  0
 11 12  1  0  0  0
 11 13  1  0  0  0
 11 42  1  0  0  0
 12 17  1  0  0  0
 13 15  1  0  0  0
 13 14  1  0  0  0
 13 43  1  0  0  0
 14 44  1  0  0  0
 15 17  1  0  0  0
 15 16  1  0  0  0
 15 45  1  0  0  0
 16 46  1  0  0  0
 17 18  1  0  0  0
 17 47  1  0  0  0
 18 27  1  0  0  0
 18 19  1  0  0  0
 19 20  2  0  0  0
 19 48  1  0  0  0
 20 21  1  0  0  0
 21 22  1  0  0  0
 21 27  2  0  0  0
 22 23  1  0  0  0
 22 24  2  0  0  0
 23 49  1  0  0  0
 23 50  1  0  0  0
 24 25  1  0  0  0
 25 26  2  0  0  0
 25 51  1  0  0  0
 26 27  1  0  0  0
M  CHG  3   1   1   4  -1   9   1
M  END
> <s_m_entry_id>
206

> <s_m_entry_name>
4yvi.1_ligand1

> <s_m_subgroup_title>
Ligands

> <s_m_subgroupid>
Ligands

> <b_m_subgroup_collapsed>
0

$$$$
