4yvj - preprocessed_ligand1
                    3D
 Schrodinger Suite 2021-1.
 50 52  0  0  1  0            999 V2000
  -34.0410    3.6390    0.5180 N   0  0  0  0  0  0
  -34.5720    4.3340   -0.6630 C   0  0  2  0  0  0
  -34.3040    3.4770   -1.8990 C   0  0  0  0  0  0
  -35.2930    3.2010   -2.6110 O   0  0  0  0  0  0
  -33.1170    3.1370   -2.1020 O   0  0  0  0  0  0
  -33.8480    5.6690   -0.8390 C   0  0  0  0  0  0
  -34.4400    6.7110    0.1100 C   0  0  0  0  0  0
  -33.5820    7.9760    0.1350 C   0  0  2  0  0  0
  -32.3410    7.7020    0.8720 N   0  0  0  0  0  0
  -34.3740    9.0980    0.8090 C   0  0  0  0  0  0
  -35.2430    9.7610   -0.2590 C   0  0  1  0  0  0
  -34.4190   10.3080   -1.2960 O   0  0  0  0  0  0
  -36.1020    8.7510   -1.0170 C   0  0  1  0  0  0
  -37.2640    8.4690   -0.2340 O   0  0  0  0  0  0
  -36.5020    9.6170   -2.2100 C   0  0  1  0  0  0
  -37.5800   10.4710   -1.8210 O   0  0  0  0  0  0
  -35.2460   10.4560   -2.4610 C   0  0  2  0  0  0
  -34.4260    9.9140   -3.5630 N   0  0  0  0  0  0
  -33.2740    9.2630   -3.4250 C   0  0  0  0  0  0
  -32.7900    8.9540   -4.6260 N   0  0  0  0  0  0
  -33.6440    9.4110   -5.5350 C   0  0  0  0  0  0
  -33.6730    9.4010   -6.9220 C   0  0  0  0  0  0
  -32.7330    8.7610   -7.6120 N   0  0  0  0  0  0
  -34.6950   10.0000   -7.5490 N   0  0  0  0  0  0
  -35.6690   10.5820   -6.8710 C   0  0  0  0  0  0
  -35.6830   10.6000   -5.5510 N   0  0  0  0  0  0
  -34.6880   10.0270   -4.8600 C   0  0  0  0  0  0
  -34.2124    4.1964    1.3426 H   0  0  0  0  0  0
  -34.4983    2.7438    0.6163 H   0  0  0  0  0  0
  -35.6430    4.5013   -0.5487 H   0  0  0  0  0  0
  -33.0679    2.6054   -2.8999 H   0  0  0  0  0  0
  -33.9602    6.0100   -1.8682 H   0  0  0  0  0  0
  -32.7882    5.5389   -0.6199 H   0  0  0  0  0  0
  -34.5005    6.2936    1.1151 H   0  0  0  0  0  0
  -35.4499    6.9638   -0.2130 H   0  0  0  0  0  0
  -33.3389    8.2683   -0.8866 H   0  0  0  0  0  0
  -31.7698    8.5347    0.8918 H   0  0  0  0  0  0
  -32.5644    7.4250    1.8172 H   0  0  0  0  0  0
  -33.6827    9.8327    1.2218 H   0  0  0  0  0  0
  -35.0121    8.6759    1.5853 H   0  0  0  0  0  0
  -35.8668   10.5377    0.1835 H   0  0  0  0  0  0
  -35.5531    7.8544   -1.3050 H   0  0  0  0  0  0
  -37.8161    7.8345   -0.6968 H   0  0  0  0  0  0
  -36.7615    9.0112   -3.0782 H   0  0  0  0  0  0
  -37.8386   11.0197   -2.5650 H   0  0  0  0  0  0
  -35.4987   11.5019   -2.6350 H   0  0  0  0  0  0
  -32.8795    9.0665   -2.4390 H   0  0  0  0  0  0
  -32.7612    8.7585   -8.6216 H   0  0  0  0  0  0
  -31.9910    8.2776   -7.1263 H   0  0  0  0  0  0
  -36.4823   11.0599   -7.3969 H   0  0  0  0  0  0
  1  2  1  0  0  0
  1 28  1  0  0  0
  1 29  1  0  0  0
  2  3  1  0  0  0
  2  6  1  0  0  0
  2 30  1  0  0  0
  3  4  2  0  0  0
  3  5  1  0  0  0
  5 31  1  0  0  0
  6  7  1  0  0  0
  6 32  1  0  0  0
  6 33  1  0  0  0
  7  8  1  0  0  0
  7 34  1  0  0  0
  7 35  1  0  0  0
  8  9  1  0  0  0
  8 10  1  0  0  0
  8 36  1  0  0  0
  9 37  1  0  0  0
  9 38  1  0  0  0
 10 11  1  0  0  0
 10 39  1  0  0  0
 10 40  1  0  0  0
 11 12  1  0  0  0
 11 13  1  0  0  0
 11 41  1  0  0  0
 12 17  1  0  0  0
 13 14  1  0  0  0
 13 15  1  0  0  0
 13 42  1  0  0  0
 14 43  1  0  0  0
 15 16  1  0  0  0
 15 17  1  0  0  0
 15 44  1  0  0  0
 16 45  1  0  0  0
 17 18  1  0  0  0
 17 46  1  0  0  0
 18 19  1  0  0  0
 18 27  1  0  0  0
 19 20  2  0  0  0
 19 47  1  0  0  0
 20 21  1  0  0  0
 21 22  1  0  0  0
 21 27  2  0  0  0
 22 23  1  0  0  0
 22 24  2  0  0  0
 23 48  1  0  0  0
 23 49  1  0  0  0
 24 25  1  0  0  0
 25 26  2  0  0  0
 25 50  1  0  0  0
 26 27  1  0  0  0
M  END
> <s_m_entry_id>
29

> <s_m_entry_name>
4yvj_ligand1

> <s_ppw_entry_id_backup>
16

> <b_ppw_prepared>
1

> <s_ppw_prepared_with_version>
2021-1

> <b_ppw_assigned_bond_orders>
1

> <b_ppw_added_hydrogens>
1

> <b_ppw_treated_metals>
1

> <b_ppw_created_disulfur>
1

> <s_pdb_PDB_TITLE>
CRYSTAL STRUCTURE OF H. INFLUENZAE TRMD IN COMPLEX WITH SINEFUNGIN AND TRNA VARIANT (G36U)

> <s_pdb_PDB_ID>
4YVJ

> <r_pdb_PDB_CRYST1_a>
87.4

> <r_pdb_PDB_CRYST1_b>
87.4

> <r_pdb_PDB_CRYST1_c>
229

> <r_pdb_PDB_CRYST1_alpha>
90

> <r_pdb_PDB_CRYST1_beta>
90

> <r_pdb_PDB_CRYST1_gamma>
90

> <s_pdb_PDB_CRYST1_Space_Group>
P 41 21 2

> <i_pdb_PDB_CRYST1_z>
16

> <s_pdb_PDB_CLASSIFICATION>
TRANSFERASE/RNA

> <s_pdb_PDB_DEPOSITION_DATE>
20-MAR-15

> <s_pdb_PDB_format_version>
3.30

> <r_pdb_PDB_R>
0.199

> <r_pdb_PDB_Rfree>
0.278

> <r_pdb_PDB_RESOLUTION>
2.9

> <s_pdb_PDB_EXPDTA>
X-RAY DIFFRACTION

> <r_pdb_PDB_EXPDTA_TEMPERATURE>
100

> <s_pdb_PDB_REMARK_350_Biomolecule_1_Transform_1_Chains>
A, B, C

> <s_pdb_PDB_REMARK_350_Biomolecule_1_Transform_1_Matrix_1>
1.000000 0.000000 0.000000   0.000000;0.000000 1.000000 0.000000   0.000000;0.000000 0.000000 1.000000   0.000000

> <s_m_subgroup_title>
4yvj - preprocessed_split_by_structure

> <s_m_subgroupid>
4yvj - preprocessed_split_by_structure

> <b_m_subgroup_collapsed>
0

$$$$
