4yvk - preprocessed_ligand1
                    3D
 Schrodinger Suite 2021-1.
 50 52  0  0  1  0            999 V2000
  -34.3000    3.6420    0.5440 N   0  0  0  0  0  0
  -34.7110    4.4590   -0.6070 C   0  0  2  0  0  0
  -34.4550    3.6610   -1.8850 C   0  0  0  0  0  0
  -35.4480    3.4550   -2.6160 O   0  0  0  0  0  0
  -33.2800    3.2930   -2.1010 O   0  0  0  0  0  0
  -33.8810    5.7430   -0.6500 C   0  0  0  0  0  0
  -34.4570    6.7720    0.3220 C   0  0  0  0  0  0
  -33.6300    8.0590    0.3280 C   0  0  2  0  0  0
  -32.4110    7.8670    1.1260 N   0  0  0  0  0  0
  -34.4760    9.1920    0.9140 C   0  0  0  0  0  0
  -35.2970    9.8190   -0.2140 C   0  0  1  0  0  0
  -34.4390   10.3480   -1.2340 O   0  0  0  0  0  0
  -36.0960    8.7700   -0.9820 C   0  0  1  0  0  0
  -37.2660    8.4530   -0.2250 O   0  0  0  0  0  0
  -36.4780    9.6000   -2.2070 C   0  0  1  0  0  0
  -37.5990   10.4300   -1.8960 O   0  0  0  0  0  0
  -35.2380   10.4730   -2.4230 C   0  0  2  0  0  0
  -34.4010    9.9820   -3.5380 N   0  0  0  0  0  0
  -33.2220    9.3760   -3.4250 C   0  0  0  0  0  0
  -32.7460    9.0890   -4.6340 N   0  0  0  0  0  0
  -33.6330    9.5150   -5.5280 C   0  0  0  0  0  0
  -33.6920    9.5000   -6.9160 C   0  0  0  0  0  0
  -32.7350    8.9140   -7.6310 N   0  0  0  0  0  0
  -34.7540   10.0460   -7.5230 N   0  0  0  0  0  0
  -35.7390   10.5840   -6.8240 C   0  0  0  0  0  0
  -35.7220   10.6100   -5.5030 N   0  0  0  0  0  0
  -34.6880   10.0870   -4.8310 C   0  0  0  0  0  0
  -34.4631    4.1562    1.3979 H   0  0  0  0  0  0
  -34.8367    2.7865    0.5590 H   0  0  0  0  0  0
  -35.7701    4.7043   -0.5286 H   0  0  0  0  0  0
  -33.2439    2.8042   -2.9265 H   0  0  0  0  0  0
  -33.8951    6.1507   -1.6608 H   0  0  0  0  0  0
  -32.8509    5.5189   -0.3731 H   0  0  0  0  0  0
  -34.4783    6.3498    1.3267 H   0  0  0  0  0  0
  -35.4843    7.0023    0.0398 H   0  0  0  0  0  0
  -33.3524    8.3114   -0.6954 H   0  0  0  0  0  0
  -31.8700    8.7199    1.1257 H   0  0  0  0  0  0
  -32.6631    7.6290    2.0747 H   0  0  0  0  0  0
  -33.8207    9.9468    1.3488 H   0  0  0  0  0  0
  -35.1482    8.7887    1.6713 H   0  0  0  0  0  0
  -35.9557   10.5953    0.1753 H   0  0  0  0  0  0
  -35.5048    7.8899   -1.2351 H   0  0  0  0  0  0
  -37.7820    7.7931   -0.6939 H   0  0  0  0  0  0
  -36.6770    8.9674   -3.0721 H   0  0  0  0  0  0
  -37.8365   10.9500   -2.6672 H   0  0  0  0  0  0
  -35.5237   11.5122   -2.5861 H   0  0  0  0  0  0
  -32.8012    9.1913   -2.4476 H   0  0  0  0  0  0
  -32.7890    8.9096   -8.6395 H   0  0  0  0  0  0
  -31.9545    8.4735   -7.1652 H   0  0  0  0  0  0
  -36.5874   11.0180   -7.3321 H   0  0  0  0  0  0
  1  2  1  0  0  0
  1 28  1  0  0  0
  1 29  1  0  0  0
  2  3  1  0  0  0
  2  6  1  0  0  0
  2 30  1  0  0  0
  3  4  2  0  0  0
  3  5  1  0  0  0
  5 31  1  0  0  0
  6  7  1  0  0  0
  6 32  1  0  0  0
  6 33  1  0  0  0
  7  8  1  0  0  0
  7 34  1  0  0  0
  7 35  1  0  0  0
  8  9  1  0  0  0
  8 10  1  0  0  0
  8 36  1  0  0  0
  9 37  1  0  0  0
  9 38  1  0  0  0
 10 11  1  0  0  0
 10 39  1  0  0  0
 10 40  1  0  0  0
 11 12  1  0  0  0
 11 13  1  0  0  0
 11 41  1  0  0  0
 12 17  1  0  0  0
 13 14  1  0  0  0
 13 15  1  0  0  0
 13 42  1  0  0  0
 14 43  1  0  0  0
 15 16  1  0  0  0
 15 17  1  0  0  0
 15 44  1  0  0  0
 16 45  1  0  0  0
 17 18  1  0  0  0
 17 46  1  0  0  0
 18 19  1  0  0  0
 18 27  1  0  0  0
 19 20  2  0  0  0
 19 47  1  0  0  0
 20 21  1  0  0  0
 21 22  1  0  0  0
 21 27  2  0  0  0
 22 23  1  0  0  0
 22 24  2  0  0  0
 23 48  1  0  0  0
 23 49  1  0  0  0
 24 25  1  0  0  0
 25 26  2  0  0  0
 25 50  1  0  0  0
 26 27  1  0  0  0
M  END
> <s_m_entry_id>
33

> <s_m_entry_name>
4yvk_ligand1

> <s_ppw_entry_id_backup>
17

> <b_ppw_prepared>
1

> <s_ppw_prepared_with_version>
2021-1

> <b_ppw_assigned_bond_orders>
1

> <b_ppw_added_hydrogens>
1

> <b_ppw_treated_metals>
1

> <b_ppw_created_disulfur>
1

> <s_pdb_PDB_TITLE>
CRYSTAL STRUCTURE OF H. INFLUENZAE TRMD IN COMPLEX WITH SINEFUNGIN AND TRNA VARIANT (G36C)

> <s_pdb_PDB_ID>
4YVK

> <r_pdb_PDB_CRYST1_a>
87.45

> <r_pdb_PDB_CRYST1_b>
87.45

> <r_pdb_PDB_CRYST1_c>
228.72

> <r_pdb_PDB_CRYST1_alpha>
90

> <r_pdb_PDB_CRYST1_beta>
90

> <r_pdb_PDB_CRYST1_gamma>
90

> <s_pdb_PDB_CRYST1_Space_Group>
P 41 21 2

> <i_pdb_PDB_CRYST1_z>
16

> <s_pdb_PDB_CLASSIFICATION>
TRANSFERASE/RNA

> <s_pdb_PDB_DEPOSITION_DATE>
20-MAR-15

> <s_pdb_PDB_format_version>
3.30

> <r_pdb_PDB_R>
0.219

> <r_pdb_PDB_Rfree>
0.283

> <r_pdb_PDB_RESOLUTION>
3

> <s_pdb_PDB_EXPDTA>
X-RAY DIFFRACTION

> <r_pdb_PDB_EXPDTA_TEMPERATURE>
100

> <s_pdb_PDB_REMARK_350_Biomolecule_1_Transform_1_Chains>
A, B, C

> <s_pdb_PDB_REMARK_350_Biomolecule_1_Transform_1_Matrix_1>
1.000000 0.000000 0.000000   0.000000;0.000000 1.000000 0.000000   0.000000;0.000000 0.000000 1.000000   0.000000

> <s_m_subgroup_title>
4yvk - preprocessed_split_by_structure

> <s_m_subgroupid>
4yvk - preprocessed_split_by_structure

> <b_m_subgroup_collapsed>
0

$$$$
