5d9f_ligand
                    3D
 Schrodinger Suite 2021-1.
 40 42  0  0  1  0            999 V2000
  -18.2440   45.3160  -12.7210 C   0  0  0  0  0  0
  -17.3140   44.6520  -11.9650 C   0  0  0  0  0  0
  -19.1120   44.6190  -13.5260 C   0  0  0  0  0  0
  -19.8870   42.3280   -7.0890 C   0  0  0  0  0  0
  -17.2520   43.2820  -12.0190 C   0  0  0  0  0  0
  -19.0460   43.2490  -13.5720 C   0  0  0  0  0  0
  -18.8280   41.9730   -7.8830 C   0  0  0  0  0  0
  -21.1810   40.8050   -8.3440 C   0  0  0  0  0  0
  -21.0900   41.7260   -7.3320 C   0  0  0  0  0  0
  -18.1150   42.5810  -12.8180 C   0  0  0  0  0  0
  -18.9880   41.0430   -8.8830 C   0  0  0  0  0  0
  -22.2550   42.0770   -6.5140 C   0  0  0  0  0  0
  -16.6420   40.7070  -12.5310 C   0  0  0  0  0  0
  -16.7300   39.7000  -11.4190 C   0  0  0  0  0  0
  -18.9350   40.5780  -11.7710 C   0  0  0  0  0  0
  -18.0450   41.1070  -12.8620 C   0  0  1  0  0  0
  -18.0630   39.8940  -10.7520 C   0  0  2  0  0  0
  -20.1580   40.4510   -9.1230 N   0  0  0  0  0  0
  -22.0900   43.2250   -5.7970 N   0  0  0  0  0  0
  -17.8370   40.7640   -9.6260 N   0  0  0  0  0  0
  -23.2520   41.3840   -6.5150 O   0  0  0  0  0  0
  -18.2920   46.3942  -12.6812 H   0  0  0  0  0  0
  -16.6366   45.2066  -11.3326 H   0  0  0  0  0  0
  -19.8423   45.1493  -14.1192 H   0  0  0  0  0  0
  -19.7532   43.0592   -6.3055 H   0  0  0  0  0  0
  -16.5196   42.7509  -11.4292 H   0  0  0  0  0  0
  -19.7272   42.6964  -14.2020 H   0  0  0  0  0  0
  -17.8597   42.4245   -7.7253 H   0  0  0  0  0  0
  -22.1529   40.3583   -8.4929 H   0  0  0  0  0  0
  -16.0879   41.5801  -12.1863 H   0  0  0  0  0  0
  -16.1817   40.2439  -13.4038 H   0  0  0  0  0  0
  -15.9335   39.8852  -10.6983 H   0  0  0  0  0  0
  -16.6759   38.6942  -11.8356 H   0  0  0  0  0  0
  -19.6355   39.8567  -12.1919 H   0  0  0  0  0  0
  -19.4626   41.4069  -11.2992 H   0  0  0  0  0  0
  -18.3456   40.7255  -13.8378 H   0  0  0  0  0  0
  -18.4917   38.9423  -10.4381 H   0  0  0  0  0  0
  -22.8328   43.5583   -5.1993 H   0  0  0  0  0  0
  -21.2250   43.7421   -5.8636 H   0  0  0  0  0  0
  -16.9505   41.1637   -9.3530 H   0  0  0  0  0  0
  1  3  1  0  0  0
  1  2  2  0  0  0
  1 22  1  0  0  0
  2  5  1  0  0  0
  2 23  1  0  0  0
  3  6  2  0  0  0
  3 24  1  0  0  0
  4  7  1  0  0  0
  4  9  2  0  0  0
  4 25  1  0  0  0
  5 10  2  0  0  0
  5 26  1  0  0  0
  6 10  1  0  0  0
  6 27  1  0  0  0
  7 11  2  0  0  0
  7 28  1  0  0  0
  8 18  2  0  0  0
  8  9  1  0  0  0
  8 29  1  0  0  0
  9 12  1  0  0  0
 10 16  1  0  0  0
 11 20  1  0  0  0
 11 18  1  0  0  0
 12 21  2  0  0  0
 12 19  1  0  0  0
 13 16  1  0  0  0
 13 14  1  0  0  0
 13 30  1  0  0  0
 13 31  1  0  0  0
 14 17  1  0  0  0
 14 32  1  0  0  0
 14 33  1  0  0  0
 15 16  1  0  0  0
 15 17  1  0  0  0
 15 34  1  0  0  0
 15 35  1  0  0  0
 16 36  1  0  0  0
 17 20  1  0  0  0
 17 37  1  0  0  0
 19 38  1  0  0  0
 19 39  1  0  0  0
 20 40  1  0  0  0
M  END
> <s_m_entry_id>
200

> <s_m_entry_name>
5d9f.1_ligand

> <s_m_subgroup_title>
Ligands

> <s_m_subgroupid>
Ligands

> <b_m_subgroup_collapsed>
0

$$$$
