5wyq - preprocessed_chainA_ligand
                    3D
 Schrodinger Suite 2021-1.
 50 52  0  0  1  0            999 V2000
  -28.4310   13.6360  -31.8110 N   0  0  0  0  0  0
  -29.6760   12.8970  -31.5760 C   0  0  2  0  0  0
  -30.8280   13.5190  -32.4220 C   0  0  0  0  0  0
  -30.6390   13.5350  -33.6590 O   0  0  0  0  0  0
  -31.8580   13.9660  -31.8470 O   0  0  0  0  0  0
  -29.9780   12.8000  -30.0710 C   0  0  0  0  0  0
  -30.8880   11.6020  -29.8440 C   0  0  0  0  0  0
  -30.9930   11.1670  -28.0690 S   0  3  2  0  0  0
  -29.6050   10.0910  -27.7360 C   0  0  0  0  0  0
  -32.5390   10.1860  -27.8530 C   0  0  0  0  0  0
  -33.7620   11.0520  -27.4960 C   0  0  1  0  0  0
  -33.5140   11.8310  -26.3100 O   0  0  0  0  0  0
  -34.1070   12.1060  -28.5230 C   0  0  1  0  0  0
  -34.8210   11.5040  -29.6180 O   0  0  0  0  0  0
  -35.0220   12.9860  -27.6880 C   0  0  1  0  0  0
  -36.4060   12.4130  -27.6590 O   0  0  0  0  0  0
  -34.4260   12.9300  -26.2920 C   0  0  2  0  0  0
  -33.6320   14.1250  -25.8740 N   0  0  0  0  0  0
  -32.3020   14.0680  -25.6900 C   0  0  0  0  0  0
  -31.8740   15.2640  -25.2690 N   0  0  0  0  0  0
  -32.9450   16.0680  -25.1550 C   0  0  0  0  0  0
  -33.0660   17.3590  -24.8350 C   0  0  0  0  0  0
  -31.9550   18.0040  -24.4580 N   0  0  0  0  0  0
  -34.2480   17.9930  -24.8870 N   0  0  0  0  0  0
  -35.4010   17.2900  -25.2000 C   0  0  0  0  0  0
  -35.2410   15.9460  -25.5390 N   0  0  0  0  0  0
  -34.0290   15.3690  -25.5400 C   0  0  0  0  0  0
  -27.6883   13.2290  -31.2607 H   0  0  0  0  0  0
  -28.1894   13.5867  -32.7904 H   0  0  0  0  0  0
  -29.5213   11.8812  -31.9397 H   0  0  0  0  0  0
  -32.4669   14.3119  -32.5036 H   0  0  0  0  0  0
  -30.4845   13.7078  -29.7432 H   0  0  0  0  0  0
  -29.0469   12.6576  -29.5224 H   0  0  0  0  0  0
  -30.5096   10.7476  -30.4051 H   0  0  0  0  0  0
  -31.8853   11.8272  -30.2219 H   0  0  0  0  0  0
  -29.6158    9.7975  -26.6863 H   0  0  0  0  0  0
  -29.6757    9.2016  -28.3622 H   0  0  0  0  0  0
  -28.6760   10.6168  -27.9562 H   0  0  0  0  0  0
  -32.3867    9.4369  -27.0760 H   0  0  0  0  0  0
  -32.7446    9.6285  -28.7668 H   0  0  0  0  0  0
  -34.6265   10.4085  -27.3327 H   0  0  0  0  0  0
  -33.2234   12.6463  -28.8627 H   0  0  0  0  0  0
  -35.0380   12.1768  -30.2676 H   0  0  0  0  0  0
  -35.0315   14.0080  -28.0667 H   0  0  0  0  0  0
  -36.9750   12.9763  -27.1293 H   0  0  0  0  0  0
  -35.2146   12.7404  -25.5638 H   0  0  0  0  0  0
  -31.7690   13.1488  -25.8833 H   0  0  0  0  0  0
  -31.9990   18.9813  -24.2069 H   0  0  0  0  0  0
  -31.0729   17.5133  -24.4247 H   0  0  0  0  0  0
  -36.3599   17.7862  -25.1736 H   0  0  0  0  0  0
  1  2  1  0  0  0
  1 28  1  0  0  0
  1 29  1  0  0  0
  2  3  1  0  0  0
  2  6  1  0  0  0
  2 30  1  0  0  0
  3  4  2  0  0  0
  3  5  1  0  0  0
  5 31  1  0  0  0
  6  7  1  0  0  0
  6 32  1  0  0  0
  6 33  1  0  0  0
  7  8  1  0  0  0
  7 34  1  0  0  0
  7 35  1  0  0  0
  8  9  1  0  0  0
  8 10  1  0  0  0
  9 36  1  0  0  0
  9 37  1  0  0  0
  9 38  1  0  0  0
 10 11  1  0  0  0
 10 39  1  0  0  0
 10 40  1  0  0  0
 11 12  1  0  0  0
 11 13  1  0  0  0
 11 41  1  0  0  0
 12 17  1  0  0  0
 13 14  1  0  0  0
 13 15  1  0  0  0
 13 42  1  0  0  0
 14 43  1  0  0  0
 15 16  1  0  0  0
 15 17  1  0  0  0
 15 44  1  0  0  0
 16 45  1  0  0  0
 17 18  1  0  0  0
 17 46  1  0  0  0
 18 19  1  0  0  0
 18 27  1  0  0  0
 19 20  2  0  0  0
 19 47  1  0  0  0
 20 21  1  0  0  0
 21 22  1  0  0  0
 21 27  2  0  0  0
 22 23  1  0  0  0
 22 24  2  0  0  0
 23 48  1  0  0  0
 23 49  1  0  0  0
 24 25  1  0  0  0
 25 26  2  0  0  0
 25 50  1  0  0  0
 26 27  1  0  0  0
M  CHG  1   8   1
M  END
> <s_m_entry_id>
196

> <s_m_entry_name>
5wyq_A_ligand

> <s_pdb_PDB_TITLE>
CRYSTAL STRUCTURE AND CATALYTIC MECHANISM OF THE ESSENTIAL M1G37 TRNA METHYLTRANSFERASE TRMD FROM PSEUDOMONAS AERUGINOSA

> <s_pdb_PDB_ID>
5WYQ

> <r_pdb_PDB_CRYST1_a>
85.896

> <r_pdb_PDB_CRYST1_b>
85.896

> <r_pdb_PDB_CRYST1_c>
147.838

> <r_pdb_PDB_CRYST1_alpha>
90

> <r_pdb_PDB_CRYST1_beta>
90

> <r_pdb_PDB_CRYST1_gamma>
120

> <s_pdb_PDB_CRYST1_Space_Group>
P 32 2 1

> <i_pdb_PDB_CRYST1_z>
12

> <s_pdb_PDB_CLASSIFICATION>
TRANSFERASE

> <s_pdb_PDB_DEPOSITION_DATE>
15-JAN-17

> <s_pdb_PDB_format_version>
3.30

> <r_pdb_PDB_R>
0.207

> <r_pdb_PDB_Rfree>
0.249

> <r_pdb_PDB_RESOLUTION>
2.16

> <s_pdb_PDB_EXPDTA>
X-RAY DIFFRACTION

> <r_pdb_PDB_EXPDTA_TEMPERATURE>
100

> <s_pdb_PDB_REMARK_350_Biomolecule_1_Transform_1_Chains>
A, B

> <s_pdb_PDB_REMARK_350_Biomolecule_1_Transform_1_Matrix_1>
1.000000 0.000000 0.000000   0.000000;0.000000 1.000000 0.000000   0.000000;0.000000 0.000000 1.000000   0.000000

> <s_ppw_entry_id_backup>
192

> <b_ppw_prepared>
1

> <s_ppw_prepared_with_version>
2021-1

> <b_ppw_assigned_bond_orders>
1

> <b_ppw_added_hydrogens>
1

> <b_ppw_treated_metals>
1

> <b_ppw_created_disulfur>
1

> <s_m_Chain_Name>
A

> <s_m_subgroup_title>
5wyq - preprocessed_split_by_chain->5wyq - preprocessed_chainA_split_by_structure

> <s_m_subgroupid>
5wyq - preprocessed_split_by_chain->5wyq - preprocessed_chainA_split_by_structure

> <b_m_subgroup_collapsed>
0

$$$$
