5wyr - preprocessed_chainA_ligand
                    3D
 Schrodinger Suite 2021-1.
 50 52  0  0  1  0            999 V2000
  -28.8500   12.0590  -31.9100 N   0  0  0  0  0  0
  -29.7280   13.0560  -31.2920 C   0  0  2  0  0  0
  -28.9820   14.4040  -31.2610 C   0  0  0  0  0  0
  -27.7540   14.4020  -31.0090 O   0  0  0  0  0  0
  -29.6780   15.4220  -31.4560 O   0  0  0  0  0  0
  -30.1490   12.7120  -29.8440 C   0  0  0  0  0  0
  -30.7300   11.2990  -29.6940 C   0  0  0  0  0  0
  -30.9090   10.9790  -28.1990 C   0  0  2  0  0  0
  -29.7340   10.2550  -27.7660 N   0  0  0  0  0  0
  -32.1590   10.1080  -27.9550 C   0  0  0  0  0  0
  -33.4490   10.9060  -27.5960 C   0  0  1  0  0  0
  -33.3820   11.6270  -26.3210 O   0  0  0  0  0  0
  -33.8100   11.9450  -28.6060 C   0  0  1  0  0  0
  -34.4580   11.3240  -29.6930 O   0  0  0  0  0  0
  -34.7160   12.8950  -27.8070 C   0  0  1  0  0  0
  -36.0980   12.4050  -27.8090 O   0  0  0  0  0  0
  -34.1690   12.8100  -26.3880 C   0  0  2  0  0  0
  -33.2940   13.9260  -25.9770 N   0  0  0  0  0  0
  -31.9920   13.8000  -25.6850 C   0  0  0  0  0  0
  -31.5430   14.9680  -25.2360 N   0  0  0  0  0  0
  -32.5890   15.8190  -25.1860 C   0  0  0  0  0  0
  -32.7170   17.0700  -24.7080 C   0  0  0  0  0  0
  -31.6070   17.7180  -24.3310 N   0  0  0  0  0  0
  -33.8370   17.7610  -24.8410 N   0  0  0  0  0  0
  -35.1030   17.1520  -25.2490 C   0  0  0  0  0  0
  -34.8850   15.7340  -25.6060 N   0  0  0  0  0  0
  -33.6810   15.1470  -25.5820 C   0  0  0  0  0  0
  -29.3218   11.1665  -31.9397 H   0  0  0  0  0  0
  -28.6196   12.3489  -32.8496 H   0  0  0  0  0  0
  -30.6241   13.1633  -31.9032 H   0  0  0  0  0  0
  -29.1214   16.2032  -31.4165 H   0  0  0  0  0  0
  -30.8797   13.4423  -29.4966 H   0  0  0  0  0  0
  -29.2903   12.8222  -29.1818 H   0  0  0  0  0  0
  -30.0472   10.5763  -30.1408 H   0  0  0  0  0  0
  -31.6971   11.2491  -30.1943 H   0  0  0  0  0  0
  -30.9948   11.9074  -27.6344 H   0  0  0  0  0  0
  -29.8197   10.0288  -26.7854 H   0  0  0  0  0  0
  -29.6468    9.4029  -28.3012 H   0  0  0  0  0  0
  -31.9483    9.3880  -27.1642 H   0  0  0  0  0  0
  -32.3481    9.4935  -28.8352 H   0  0  0  0  0  0
  -34.2747   10.1970  -27.5360 H   0  0  0  0  0  0
  -32.9171   12.4694  -28.9462 H   0  0  0  0  0  0
  -34.6932   11.9864  -30.3468 H   0  0  0  0  0  0
  -34.6576   13.9130  -28.1921 H   0  0  0  0  0  0
  -36.6522   13.0071  -27.3071 H   0  0  0  0  0  0
  -34.9999   12.7285  -25.6873 H   0  0  0  0  0  0
  -31.4948   12.8526  -25.8321 H   0  0  0  0  0  0
  -31.6699   18.6584  -23.9680 H   0  0  0  0  0  0
  -30.7071   17.2662  -24.4097 H   0  0  0  0  0  0
  -36.0086   17.7404  -25.2535 H   0  0  0  0  0  0
  1  2  1  0  0  0
  1 28  1  0  0  0
  1 29  1  0  0  0
  2  3  1  0  0  0
  2  6  1  0  0  0
  2 30  1  0  0  0
  3  4  2  0  0  0
  3  5  1  0  0  0
  5 31  1  0  0  0
  6  7  1  0  0  0
  6 32  1  0  0  0
  6 33  1  0  0  0
  7  8  1  0  0  0
  7 34  1  0  0  0
  7 35  1  0  0  0
  8  9  1  0  0  0
  8 10  1  0  0  0
  8 36  1  0  0  0
  9 37  1  0  0  0
  9 38  1  0  0  0
 10 11  1  0  0  0
 10 39  1  0  0  0
 10 40  1  0  0  0
 11 12  1  0  0  0
 11 13  1  0  0  0
 11 41  1  0  0  0
 12 17  1  0  0  0
 13 14  1  0  0  0
 13 15  1  0  0  0
 13 42  1  0  0  0
 14 43  1  0  0  0
 15 16  1  0  0  0
 15 17  1  0  0  0
 15 44  1  0  0  0
 16 45  1  0  0  0
 17 18  1  0  0  0
 17 46  1  0  0  0
 18 19  1  0  0  0
 18 27  1  0  0  0
 19 20  2  0  0  0
 19 47  1  0  0  0
 20 21  1  0  0  0
 21 22  1  0  0  0
 21 27  2  0  0  0
 22 23  1  0  0  0
 22 24  2  0  0  0
 23 48  1  0  0  0
 23 49  1  0  0  0
 24 25  1  0  0  0
 25 26  2  0  0  0
 25 50  1  0  0  0
 26 27  1  0  0  0
M  END
> <s_m_entry_id>
189

> <s_m_entry_name>
5wyr_A_ligand

> <s_pdb_PDB_TITLE>
CRYSTAL STRUCTURE AND CATALYTIC MECHANISM OF THE ESSENTIAL M1G37 TRNA METHYLTRANSFERASE TRMD FROM PSEUDOMONAS AERUGINOSA

> <s_pdb_PDB_ID>
5WYR

> <r_pdb_PDB_CRYST1_a>
85.29

> <r_pdb_PDB_CRYST1_b>
85.29

> <r_pdb_PDB_CRYST1_c>
147.12

> <r_pdb_PDB_CRYST1_alpha>
90

> <r_pdb_PDB_CRYST1_beta>
90

> <r_pdb_PDB_CRYST1_gamma>
120

> <s_pdb_PDB_CRYST1_Space_Group>
P 32 2 1

> <i_pdb_PDB_CRYST1_z>
12

> <s_pdb_PDB_CLASSIFICATION>
TRANSFERASE

> <s_pdb_PDB_DEPOSITION_DATE>
15-JAN-17

> <s_pdb_PDB_format_version>
3.30

> <r_pdb_PDB_R>
0.191

> <r_pdb_PDB_Rfree>
0.231

> <r_pdb_PDB_RESOLUTION>
2.45

> <s_pdb_PDB_EXPDTA>
X-RAY DIFFRACTION

> <r_pdb_PDB_EXPDTA_TEMPERATURE>
100

> <s_pdb_PDB_REMARK_350_Biomolecule_1_Transform_1_Chains>
A, B

> <s_pdb_PDB_REMARK_350_Biomolecule_1_Transform_1_Matrix_1>
1.000000 0.000000 0.000000   0.000000;0.000000 1.000000 0.000000   0.000000;0.000000 0.000000 1.000000   0.000000

> <s_ppw_entry_id_backup>
185

> <b_ppw_prepared>
1

> <s_ppw_prepared_with_version>
2021-1

> <b_ppw_assigned_bond_orders>
1

> <b_ppw_added_hydrogens>
1

> <b_ppw_treated_metals>
1

> <b_ppw_created_disulfur>
1

> <s_m_Chain_Name>
A

> <s_m_subgroup_title>
5wyr - preprocessed_split_by_chain->5wyr - preprocessed_chainA_split_by_structure

> <s_m_subgroupid>
5wyr - preprocessed_split_by_chain->5wyr - preprocessed_chainA_split_by_structure

> <b_m_subgroup_collapsed>
0

$$$$
