5ZHM - preprocessed_chainA_ligand
                    3D
 Schrodinger Suite 2021-1.
 48 50  0  0  1  0            999 V2000
   47.7150  123.2820   20.6500 C   0  0  0  0  0  0
   48.2590  122.2090   19.6760 C   0  0  0  0  0  0
   47.8800  120.8040   20.0040 N   0  0  0  0  0  0
   48.6390  120.2600   21.1670 C   0  0  0  0  0  0
   47.7840  120.1270   22.4400 C   0  0  0  0  0  0
   48.1960  119.9590   18.8220 C   0  0  0  0  0  0
   47.0910  119.2130   18.3940 C   0  0  0  0  0  0
   46.3420  119.6620   17.2970 C   0  0  0  0  0  0
   45.2130  118.9650   16.8490 C   0  0  0  0  0  0
   46.7380  118.0160   19.0350 C   0  0  0  0  0  0
   45.6120  117.3110   18.5900 C   0  0  0  0  0  0
   44.8440  117.7980   17.5150 C   0  0  0  0  0  0
   43.7340  117.1050   17.0960 C   0  0  0  0  0  0
   44.1750  116.1930   16.0470 N   0  0  0  0  0  0
   44.0170  114.8690   16.1090 C   0  0  0  0  0  0
   43.5110  114.3440   17.1080 O   0  0  0  0  0  0
   44.4560  114.1000   15.0690 C   0  0  0  0  0  0
   44.8410  114.4770   13.7900 C   0  0  0  0  0  0
   44.9180  115.6800   13.1320 C   0  0  0  0  0  0
   44.6010  116.7640   13.6380 O   0  0  0  0  0  0
   45.3690  115.7690   11.7690 N   0  0  0  0  0  0
   45.6590  114.6820   11.0860 C   0  0  0  0  0  0
   45.5460  113.4640   11.7540 N   0  0  0  0  0  0
   45.1830  113.3820   13.0430 C   0  0  0  0  0  0
   44.9710  111.9720   13.9330 S   0  0  0  0  0  0
   44.4350  112.7640   15.2950 C   0  0  0  0  0  0
   48.0452  124.2688   20.3256 H   0  0  0  0  0  0
   46.6255  123.2481   20.6571 H   0  0  0  0  0  0
   48.0906  123.0857   21.6542 H   0  0  0  0  0  0
   49.3450  122.2866   19.6243 H   0  0  0  0  0  0
   47.9324  122.4432   18.6628 H   0  0  0  0  0  0
   49.4960  120.9016   21.3720 H   0  0  0  0  0  0
   49.0528  119.2861   20.9056 H   0  0  0  0  0  0
   48.3952  119.7259   23.2485 H   0  0  0  0  0  0
   47.4020  121.1071   22.7258 H   0  0  0  0  0  0
   46.9485  119.4537   22.2484 H   0  0  0  0  0  0
   49.0158  119.2840   19.0677 H   0  0  0  0  0  0
   48.5436  120.5926   18.0060 H   0  0  0  0  0  0
   46.6319  120.5636   16.7779 H   0  0  0  0  0  0
   44.6498  119.3348   16.0049 H   0  0  0  0  0  0
   47.3314  117.6497   19.8596 H   0  0  0  0  0  0
   45.3279  116.3873   19.0722 H   0  0  0  0  0  0
   43.0041  117.8031   16.6861 H   0  0  0  0  0  0
   43.3294  116.5305   17.9293 H   0  0  0  0  0  0
   44.6201  116.6113   15.2427 H   0  0  0  0  0  0
   45.4658  116.6720   11.3270 H   0  0  0  0  0  0
   45.9685  114.7591   10.0542 H   0  0  0  0  0  0
   44.1028  112.3829   16.2494 H   0  0  0  0  0  0
  1  2  1  0  0  0
  1 27  1  0  0  0
  1 28  1  0  0  0
  1 29  1  0  0  0
  2  3  1  0  0  0
  2 30  1  0  0  0
  2 31  1  0  0  0
  3  4  1  0  0  0
  3  6  1  0  0  0
  4  5  1  0  0  0
  4 32  1  0  0  0
  4 33  1  0  0  0
  5 34  1  0  0  0
  5 35  1  0  0  0
  5 36  1  0  0  0
  6  7  1  0  0  0
  6 37  1  0  0  0
  6 38  1  0  0  0
  7  8  1  0  0  0
  7 10  2  0  0  0
  8  9  2  0  0  0
  8 39  1  0  0  0
  9 12  1  0  0  0
  9 40  1  0  0  0
 10 11  1  0  0  0
 10 41  1  0  0  0
 11 12  2  0  0  0
 11 42  1  0  0  0
 12 13  1  0  0  0
 13 14  1  0  0  0
 13 43  1  0  0  0
 13 44  1  0  0  0
 14 15  1  0  0  0
 14 45  1  0  0  0
 15 16  2  0  0  0
 15 17  1  0  0  0
 17 18  1  0  0  0
 17 26  2  0  0  0
 18 19  1  0  0  0
 18 24  2  0  0  0
 19 20  2  0  0  0
 19 21  1  0  0  0
 21 22  1  0  0  0
 21 46  1  0  0  0
 22 23  2  0  0  0
 22 47  1  0  0  0
 23 24  1  0  0  0
 24 25  1  0  0  0
 25 26  1  0  0  0
 26 48  1  0  0  0
M  END
> <s_m_entry_id>
177

> <s_m_entry_name>
pdb5zhm.ent.1_A_ligand

> <s_pdb_PDB_TITLE>
CRYSTAL STRUCTURE OF TRMD FROM PSEUDOMONAS AERUGINOSA IN COMPLEX WITH ACTIVE-SITE INHIBITOR

> <s_pdb_PDB_ID>
5ZHM

> <r_pdb_PDB_CRYST1_a>
84.5

> <r_pdb_PDB_CRYST1_b>
84.5

> <r_pdb_PDB_CRYST1_c>
147.271

> <r_pdb_PDB_CRYST1_alpha>
90

> <r_pdb_PDB_CRYST1_beta>
90

> <r_pdb_PDB_CRYST1_gamma>
120

> <s_pdb_PDB_CRYST1_Space_Group>
P 32 2 1

> <i_pdb_PDB_CRYST1_z>
12

> <s_pdb_PDB_CLASSIFICATION>
TRANSFERASE

> <s_pdb_PDB_DEPOSITION_DATE>
13-MAR-18

> <s_pdb_PDB_format_version>
3.30

> <r_pdb_PDB_R>
0.215

> <r_pdb_PDB_Rfree>
0.275

> <r_pdb_PDB_RESOLUTION>
2.76

> <s_pdb_PDB_EXPDTA>
X-RAY DIFFRACTION

> <r_pdb_PDB_EXPDTA_TEMPERATURE>
100

> <s_pdb_PDB_REMARK_350_Biomolecule_1_Transform_1_Chains>
A, B

> <s_pdb_PDB_REMARK_350_Biomolecule_1_Transform_1_Matrix_1>
1.000000 0.000000 0.000000   0.000000;0.000000 1.000000 0.000000   0.000000;0.000000 0.000000 1.000000   0.000000

> <s_m_Source_Path>
C:\Users\maila\AppData\Local\Temp\7zE0C379B6C

> <s_m_Source_File>
pdb5zhm.ent.gz

> <i_m_Source_File_Index>
1

> <r_pdb_PDB_EXPDTA_PH>
8.6

> <s_ppw_entry_id_backup>
59

> <b_ppw_prepared>
1

> <s_ppw_prepared_with_version>
2021-1

> <b_ppw_assigned_bond_orders>
1

> <b_ppw_added_hydrogens>
1

> <b_ppw_treated_metals>
1

> <b_ppw_created_disulfur>
1

> <s_m_Chain_Name>
A

> <s_m_subgroup_title>
5ZHM - preprocessed_split_by_chain->5ZHM - preprocessed_chainA_split_by_structure

> <s_m_subgroupid>
5ZHM - preprocessed_split_by_chain->5ZHM - preprocessed_chainA_split_by_structure

> <b_m_subgroup_collapsed>
0

$$$$
