5zhn - preprocessed_chainA_ligand
                    3D
 Schrodinger Suite 2021-1.
 60 62  0  0  1  0            999 V2000
   54.6730  125.8360   22.9310 C   0  0  0  0  0  0
   54.9830  124.6030   22.0710 C   0  0  0  0  0  0
   53.6920  124.0730   21.4230 C   0  0  0  0  0  0
   54.0000  123.3470   20.0970 C   0  0  0  0  0  0
   53.1030  123.8830   18.9650 C   0  0  0  0  0  0
   52.6210  122.7400   18.0560 C   0  0  0  0  0  0
   51.1360  122.4320   18.3070 C   0  0  0  0  0  0
   50.4880  121.7240   17.0880 C   0  0  0  0  0  0
   49.7060  120.5030   17.4390 N   0  0  1  0  0  0
   48.4770  120.7830   18.2240 C   0  0  0  0  0  0
   47.4530  119.8480   18.0080 C   0  0  0  0  0  0
   47.3970  118.6430   18.7340 C   0  0  0  0  0  0
   46.3510  117.7350   18.5060 C   0  0  0  0  0  0
   46.4370  120.1400   17.0840 C   0  0  0  0  0  0
   45.3750  119.2500   16.8840 C   0  0  0  0  0  0
   45.3300  118.0360   17.5800 C   0  0  0  0  0  0
   44.2650  117.1440   17.3650 C   0  0  0  0  0  0
   44.5350  116.3190   16.1810 N   0  0  0  0  0  0
   44.5050  114.9830   16.2200 C   0  0  0  0  0  0
   44.2730  114.4230   17.2970 O   0  0  0  0  0  0
   44.8330  114.2370   15.1010 C   0  0  0  0  0  0
   45.1970  114.6240   13.8080 C   0  0  0  0  0  0
   45.2640  115.8370   13.1600 C   0  0  0  0  0  0
   45.0310  116.9370   13.6930 O   0  0  0  0  0  0
   45.6250  115.9170   11.7830 N   0  0  0  0  0  0
   45.9150  114.8470   11.0670 C   0  0  0  0  0  0
   45.8830  113.6180   11.7220 N   0  0  0  0  0  0
   45.5120  113.5370   13.0170 C   0  0  0  0  0  0
   45.3410  112.1390   13.8430 S   0  0  0  0  0  0
   44.8880  112.9010   15.3060 C   0  0  0  0  0  0
   55.5932  126.2035   23.3852 H   0  0  0  0  0  0
   54.2403  126.6166   22.3053 H   0  0  0  0  0  0
   53.9650  125.5647   23.7141 H   0  0  0  0  0  0
   55.4212  123.8251   22.6963 H   0  0  0  0  0  0
   55.6956  124.8736   21.2919 H   0  0  0  0  0  0
   53.0137  124.9047   21.2323 H   0  0  0  0  0  0
   53.1986  123.3836   22.1081 H   0  0  0  0  0  0
   53.8287  122.2776   20.2204 H   0  0  0  0  0  0
   55.0467  123.5000   19.8340 H   0  0  0  0  0  0
   53.6611  124.6075   18.3720 H   0  0  0  0  0  0
   52.2409  124.3924   19.3955 H   0  0  0  0  0  0
   53.2148  121.8468   18.2502 H   0  0  0  0  0  0
   52.7618  123.0221   17.0126 H   0  0  0  0  0  0
   50.6028  123.3601   18.5131 H   0  0  0  0  0  0
   51.0411  121.7971   19.1879 H   0  0  0  0  0  0
   51.2634  121.4620   16.3681 H   0  0  0  0  0  0
   49.8426  122.4278   16.5624 H   0  0  0  0  0  0
   49.4198  120.0312   16.5931 H   0  0  0  0  0  0
   48.1125  121.7813   17.9817 H   0  0  0  0  0  0
   48.7240  120.8104   19.2853 H   0  0  0  0  0  0
   48.1585  118.4176   19.4659 H   0  0  0  0  0  0
   46.3235  116.7974   19.0413 H   0  0  0  0  0  0
   46.4694  121.0595   16.5184 H   0  0  0  0  0  0
   44.5855  119.4985   16.1902 H   0  0  0  0  0  0
   43.3445  117.7076   17.2126 H   0  0  0  0  0  0
   44.1487  116.5005   18.2371 H   0  0  0  0  0  0
   44.7490  116.7943   15.3159 H   0  0  0  0  0  0
   45.6654  116.8152   11.3229 H   0  0  0  0  0  0
   46.1629  114.9483   10.0207 H   0  0  0  0  0  0
   44.6613  112.4944   16.2805 H   0  0  0  0  0  0
  1  2  1  0  0  0
  1 31  1  0  0  0
  1 32  1  0  0  0
  1 33  1  0  0  0
  2  3  1  0  0  0
  2 34  1  0  0  0
  2 35  1  0  0  0
  3  4  1  0  0  0
  3 36  1  0  0  0
  3 37  1  0  0  0
  4  5  1  0  0  0
  4 38  1  0  0  0
  4 39  1  0  0  0
  5  6  1  0  0  0
  5 40  1  0  0  0
  5 41  1  0  0  0
  6  7  1  0  0  0
  6 42  1  0  0  0
  6 43  1  0  0  0
  7  8  1  0  0  0
  7 44  1  0  0  0
  7 45  1  0  0  0
  8  9  1  0  0  0
  8 46  1  0  0  0
  8 47  1  0  0  0
  9 10  1  0  0  0
  9 48  1  0  0  0
 10 11  1  0  0  0
 10 49  1  0  0  0
 10 50  1  0  0  0
 11 12  2  0  0  0
 11 14  1  0  0  0
 12 13  1  0  0  0
 12 51  1  0  0  0
 13 16  2  0  0  0
 13 52  1  0  0  0
 14 15  2  0  0  0
 14 53  1  0  0  0
 15 16  1  0  0  0
 15 54  1  0  0  0
 16 17  1  0  0  0
 17 18  1  0  0  0
 17 55  1  0  0  0
 17 56  1  0  0  0
 18 19  1  0  0  0
 18 57  1  0  0  0
 19 20  2  0  0  0
 19 21  1  0  0  0
 21 22  1  0  0  0
 21 30  2  0  0  0
 22 23  1  0  0  0
 22 28  2  0  0  0
 23 24  2  0  0  0
 23 25  1  0  0  0
 25 26  1  0  0  0
 25 58  1  0  0  0
 26 27  2  0  0  0
 26 59  1  0  0  0
 27 28  1  0  0  0
 28 29  1  0  0  0
 29 30  1  0  0  0
 30 60  1  0  0  0
M  END
> <s_m_entry_id>
172

> <s_m_entry_name>
5zhn_A_ligand

> <s_pdb_PDB_TITLE>
CRYSTAL STRUCTURE OF TRMD FROM PSEUDOMONAS AERUGINOSA IN COMPLEX WITH ACTIVE-SITE INHIBITOR

> <s_pdb_PDB_ID>
5ZHN

> <r_pdb_PDB_CRYST1_a>
84.67

> <r_pdb_PDB_CRYST1_b>
84.67

> <r_pdb_PDB_CRYST1_c>
148.56

> <r_pdb_PDB_CRYST1_alpha>
90

> <r_pdb_PDB_CRYST1_beta>
90

> <r_pdb_PDB_CRYST1_gamma>
120

> <s_pdb_PDB_CRYST1_Space_Group>
P 32 2 1

> <i_pdb_PDB_CRYST1_z>
12

> <s_pdb_PDB_CLASSIFICATION>
TRANSFERASE

> <s_pdb_PDB_DEPOSITION_DATE>
13-MAR-18

> <s_pdb_PDB_format_version>
3.30

> <r_pdb_PDB_R>
0.205

> <r_pdb_PDB_Rfree>
0.255

> <r_pdb_PDB_RESOLUTION>
2.65

> <s_pdb_PDB_EXPDTA>
X-RAY DIFFRACTION

> <r_pdb_PDB_EXPDTA_TEMPERATURE>
100

> <s_pdb_PDB_REMARK_350_Biomolecule_1_Transform_1_Chains>
A, B

> <s_pdb_PDB_REMARK_350_Biomolecule_1_Transform_1_Matrix_1>
1.000000 0.000000 0.000000   0.000000;0.000000 1.000000 0.000000   0.000000;0.000000 0.000000 1.000000   0.000000

> <r_pdb_PDB_EXPDTA_PH>
8.6

> <s_ppw_entry_id_backup>
165

> <b_ppw_prepared>
1

> <s_ppw_prepared_with_version>
2021-1

> <b_ppw_assigned_bond_orders>
1

> <b_ppw_added_hydrogens>
1

> <b_ppw_treated_metals>
1

> <b_ppw_created_disulfur>
1

> <s_m_Chain_Name>
A

> <s_m_subgroup_title>
5zhn - preprocessed_split_by_chain->5zhn - preprocessed_chainA_split_by_structure

> <s_m_subgroupid>
5zhn - preprocessed_split_by_chain->5zhn - preprocessed_chainA_split_by_structure

> <b_m_subgroup_collapsed>
0

$$$$
