Structure1162
                    3D
 Schrodinger Suite 2021-1.
 51 55  0  0  1  0            999 V2000
   41.4210  -26.8510   -5.0420 C   0  0  0  0  0  0
   42.4980  -27.6860   -4.6640 C   0  0  0  0  0  0
   43.8270  -27.4290   -4.2300 C   0  0  0  0  0  0
   44.6790  -28.4910   -3.9290 C   0  0  0  0  0  0
   44.2220  -29.8090   -4.0540 C   0  0  0  0  0  0
   42.9130  -30.0610   -4.4760 C   0  0  0  0  0  0
   42.0360  -28.9790   -4.7880 C   0  0  0  0  0  0
   40.7390  -28.9600   -5.2130 N   0  0  0  0  0  0
   40.3660  -27.7000   -5.3710 C   0  0  0  0  0  0
   38.9890  -27.2050   -5.8060 C   0  0  0  0  0  0
   38.3010  -27.8630   -6.5130 O   0  0  0  0  0  0
   38.5460  -25.9170   -5.2770 N   0  0  0  0  0  0
   37.2220  -25.3350   -5.6260 C   0  0  2  0  0  0
   37.4560  -23.9220   -6.0940 C   0  0  0  0  0  0
   36.3090  -25.2790   -4.4890 C   0  0  0  0  0  0
   34.9980  -24.7400   -4.8340 C   0  0  0  0  0  0
   35.0120  -23.5100   -5.7450 C   0  0  0  0  0  0
   36.1860  -23.4500   -6.7410 N   0  0  0  0  0  0
   35.9930  -23.8410   -8.0940 C   0  0  0  0  0  0
   34.8570  -23.5500   -8.8280 C   0  0  0  0  0  0
   36.8380  -24.5260   -8.8350 N   0  0  0  0  0  0
   36.3320  -24.7030  -10.0280 N   0  0  0  0  0  0
   35.1550  -24.1280  -10.0560 C   0  0  0  0  0  0
   34.2480  -24.1080  -11.2030 C   0  0  0  0  0  0
   34.6560  -24.7170  -12.3470 C   0  0  0  0  0  0
   33.7930  -24.6990  -13.3880 C   0  0  0  0  0  0
   32.6210  -24.1100  -13.2690 N   0  0  0  0  0  0
   32.2300  -23.5110  -12.1820 C   0  0  0  0  0  0
   33.0320  -23.5020  -11.0890 C   0  0  0  0  0  0
   41.5396  -25.7776   -5.0292 H   0  0  0  0  0  0
   44.1763  -26.4116   -4.1335 H   0  0  0  0  0  0
   45.6892  -28.2964   -3.6002 H   0  0  0  0  0  0
   44.8811  -30.6331   -3.8243 H   0  0  0  0  0  0
   42.5614  -31.0781   -4.5671 H   0  0  0  0  0  0
   40.2402  -29.8272   -5.3515 H   0  0  0  0  0  0
   39.1450  -25.3937   -4.6545 H   0  0  0  0  0  0
   36.7687  -25.9153   -6.4297 H   0  0  0  0  0  0
   38.2622  -23.9117   -6.8275 H   0  0  0  0  0  0
   37.6832  -23.2888   -5.2363 H   0  0  0  0  0  0
   36.7524  -24.6740   -3.6981 H   0  0  0  0  0  0
   36.1907  -26.2783   -4.0701 H   0  0  0  0  0  0
   34.4533  -24.5048   -3.9196 H   0  0  0  0  0  0
   34.3967  -25.5232   -5.2956 H   0  0  0  0  0  0
   35.0119  -22.6080   -5.1330 H   0  0  0  0  0  0
   34.0712  -23.4564   -6.2929 H   0  0  0  0  0  0
   34.0476  -22.9976   -8.3740 H   0  0  0  0  0  0
   37.7215  -24.8253   -8.4478 H   0  0  0  0  0  0
   35.6285  -25.1846  -12.3926 H   0  0  0  0  0  0
   34.0636  -25.1689  -14.3220 H   0  0  0  0  0  0
   31.2676  -23.0218  -12.1513 H   0  0  0  0  0  0
   32.7436  -23.0413  -10.1557 H   0  0  0  0  0  0
  1  2  1  0  0  0
  1  9  2  0  0  0
  1 30  1  0  0  0
  2  3  1  0  0  0
  2  7  2  0  0  0
  3  4  2  0  0  0
  3 31  1  0  0  0
  4  5  1  0  0  0
  4 32  1  0  0  0
  5  6  2  0  0  0
  5 33  1  0  0  0
  6  7  1  0  0  0
  6 34  1  0  0  0
  7  8  1  0  0  0
  8  9  1  0  0  0
  8 35  1  0  0  0
  9 10  1  0  0  0
 10 11  2  0  0  0
 10 12  1  0  0  0
 12 13  1  0  0  0
 12 36  1  0  0  0
 13 14  1  0  0  0
 13 15  1  0  0  0
 13 37  1  0  0  0
 14 18  1  0  0  0
 14 38  1  0  0  0
 14 39  1  0  0  0
 15 16  1  0  0  0
 15 40  1  0  0  0
 15 41  1  0  0  0
 16 17  1  0  0  0
 16 42  1  0  0  0
 16 43  1  0  0  0
 17 18  1  0  0  0
 17 44  1  0  0  0
 17 45  1  0  0  0
 18 19  1  0  0  0
 19 20  2  0  0  0
 19 21  1  0  0  0
 20 23  1  0  0  0
 20 46  1  0  0  0
 21 22  1  0  0  0
 21 47  1  0  0  0
 22 23  2  0  0  0
 23 24  1  0  0  0
 24 25  2  0  0  0
 24 29  1  0  0  0
 25 26  1  0  0  0
 25 48  1  0  0  0
 26 27  2  0  0  0
 26 49  1  0  0  0
 27 28  1  0  0  0
 28 29  2  0  0  0
 28 50  1  0  0  0
 29 51  1  0  0  0
M  END
> <i_m_stars>
0

> <s_m_entry_id>
1162

> <s_m_entry_name>
Structure1162

> <s_pdb_PDB_TITLE>
CRYSTAL STRUCTURE OF TRMD FROM PSEUDOMONAS AERUGINOSA IN COMPLEX WITH ACTIVE-SITE INHIBITOR

> <s_pdb_PDB_ID>
6AFK

> <r_pdb_PDB_CRYST1_a>
86.02

> <r_pdb_PDB_CRYST1_b>
86.02

> <r_pdb_PDB_CRYST1_c>
149.191

> <r_pdb_PDB_CRYST1_alpha>
90

> <r_pdb_PDB_CRYST1_beta>
90

> <r_pdb_PDB_CRYST1_gamma>
120

> <s_pdb_PDB_CRYST1_Space_Group>
P 32 2 1

> <i_pdb_PDB_CRYST1_z>
12

> <s_pdb_PDB_CLASSIFICATION>
TRANSFERASE

> <s_pdb_PDB_DEPOSITION_DATE>
08-AUG-18

> <s_pdb_PDB_format_version>
3.30

> <r_pdb_PDB_R>
0.18

> <r_pdb_PDB_Rfree>
0.249

> <r_pdb_PDB_RESOLUTION>
2.75

> <s_pdb_PDB_EXPDTA>
X-RAY DIFFRACTION

> <r_pdb_PDB_EXPDTA_TEMPERATURE>
100

> <s_pdb_PDB_REMARK_350_Biomolecule_1_Transform_1_Chains>
A, B

> <s_pdb_PDB_REMARK_350_Biomolecule_1_Transform_1_Matrix_1>
1.000000 0.000000 0.000000   0.000000;0.000000 1.000000 0.000000   0.000000;0.000000 0.000000 1.000000   0.000000

> <s_ppw_entry_id_backup>
1160

> <b_ppw_prepared>
1

> <s_ppw_prepared_with_version>
2021-1

> <b_ppw_assigned_bond_orders>
1

> <b_ppw_added_hydrogens>
1

> <b_ppw_treated_metals>
1

> <b_ppw_created_disulfur>
1

$$$$
