6jki - preprocessed_chainA_ligand1
                    3D
 Schrodinger Suite 2021-1.
 50 52  0  0  1  0            999 V2000
  -28.5390   11.8880  -31.6430 N   0  0  0  0  0  0
  -29.5830   12.8630  -31.2970 C   0  0  2  0  0  0
  -29.0590   14.2870  -31.4760 C   0  0  0  0  0  0
  -27.8420   14.5040  -31.3000 O   0  0  0  0  0  0
  -29.9050   15.1450  -31.7930 O   0  0  0  0  0  0
  -30.1200   12.6720  -29.8750 C   0  0  0  0  0  0
  -30.7280   11.2790  -29.7500 C   0  0  0  0  0  0
  -31.0470   10.9640  -28.2920 C   0  0  2  0  0  0
  -29.9970   10.0840  -27.7760 N   0  0  0  0  0  0
  -32.4010   10.2490  -28.2690 C   0  0  0  0  0  0
  -33.6060   11.1180  -27.8620 C   0  0  1  0  0  0
  -33.4560   11.7690  -26.5830 O   0  0  0  0  0  0
  -33.8950   12.2560  -28.8190 C   0  0  1  0  0  0
  -34.5470   11.7750  -30.0220 O   0  0  0  0  0  0
  -34.7910   13.1270  -27.9590 C   0  0  1  0  0  0
  -36.0890   12.5650  -27.9060 O   0  0  0  0  0  0
  -34.2030   12.9780  -26.5650 C   0  0  2  0  0  0
  -33.3120   14.0800  -26.1340 N   0  0  0  0  0  0
  -31.9910   14.0260  -25.9580 C   0  0  0  0  0  0
  -31.5850   15.1840  -25.4350 N   0  0  0  0  0  0
  -32.6600   15.9780  -25.2830 C   0  0  0  0  0  0
  -32.8190   17.2550  -24.8710 C   0  0  0  0  0  0
  -31.7420   17.9490  -24.4840 N   0  0  0  0  0  0
  -34.0260   17.8120  -24.7770 N   0  0  0  0  0  0
  -35.1540   17.1060  -25.1810 C   0  0  0  0  0  0
  -34.9620   15.8010  -25.6260 N   0  0  0  0  0  0
  -33.7320   15.2640  -25.6760 C   0  0  0  0  0  0
  -28.8980   10.9519  -31.5205 H   0  0  0  0  0  0
  -28.2615   12.0184  -32.6053 H   0  0  0  0  0  0
  -30.4133   12.7231  -31.9892 H   0  0  0  0  0  0
  -29.4772   16.0000  -31.8801 H   0  0  0  0  0  0
  -30.8849   13.4216  -29.6720 H   0  0  0  0  0  0
  -29.3029   12.7769  -29.1612 H   0  0  0  0  0  0
  -30.0253   10.5403  -30.1356 H   0  0  0  0  0  0
  -31.6425   11.2277  -30.3409 H   0  0  0  0  0  0
  -31.0933   11.8825  -27.7070 H   0  0  0  0  0  0
  -30.1882    9.8618  -26.8095 H   0  0  0  0  0  0
  -29.9740    9.2324  -28.3186 H   0  0  0  0  0  0
  -32.3406    9.3848  -27.6074 H   0  0  0  0  0  0
  -32.5907    9.8057  -29.2466 H   0  0  0  0  0  0
  -34.4875   10.4784  -27.8173 H   0  0  0  0  0  0
  -32.9759   12.7856  -29.0697 H   0  0  0  0  0  0
  -34.7189   12.5137  -30.6106 H   0  0  0  0  0  0
  -34.8032   14.1643  -28.2936 H   0  0  0  0  0  0
  -36.6552   13.1169  -27.3616 H   0  0  0  0  0  0
  -35.0169   12.8800  -25.8466 H   0  0  0  0  0  0
  -31.4457   13.1350  -26.2321 H   0  0  0  0  0  0
  -31.8420   18.9047  -24.1730 H   0  0  0  0  0  0
  -30.8292   17.5170  -24.5030 H   0  0  0  0  0  0
  -36.1267   17.5737  -25.1413 H   0  0  0  0  0  0
  1  2  1  0  0  0
  1 28  1  0  0  0
  1 29  1  0  0  0
  2  3  1  0  0  0
  2  6  1  0  0  0
  2 30  1  0  0  0
  3  4  2  0  0  0
  3  5  1  0  0  0
  5 31  1  0  0  0
  6  7  1  0  0  0
  6 32  1  0  0  0
  6 33  1  0  0  0
  7  8  1  0  0  0
  7 34  1  0  0  0
  7 35  1  0  0  0
  8  9  1  0  0  0
  8 10  1  0  0  0
  8 36  1  0  0  0
  9 37  1  0  0  0
  9 38  1  0  0  0
 10 11  1  0  0  0
 10 39  1  0  0  0
 10 40  1  0  0  0
 11 12  1  0  0  0
 11 13  1  0  0  0
 11 41  1  0  0  0
 12 17  1  0  0  0
 13 14  1  0  0  0
 13 15  1  0  0  0
 13 42  1  0  0  0
 14 43  1  0  0  0
 15 16  1  0  0  0
 15 17  1  0  0  0
 15 44  1  0  0  0
 16 45  1  0  0  0
 17 18  1  0  0  0
 17 46  1  0  0  0
 18 19  1  0  0  0
 18 27  1  0  0  0
 19 20  2  0  0  0
 19 47  1  0  0  0
 20 21  1  0  0  0
 21 22  1  0  0  0
 21 27  2  0  0  0
 22 23  1  0  0  0
 22 24  2  0  0  0
 23 48  1  0  0  0
 23 49  1  0  0  0
 24 25  1  0  0  0
 25 26  2  0  0  0
 25 50  1  0  0  0
 26 27  1  0  0  0
M  END
> <s_m_entry_id>
159

> <s_m_entry_name>
6jki_A_ligand1

> <s_pdb_PDB_TITLE>
CRYSTAL STRUCTURE AND CATALYTIC MECHANISM OF THE ESSENTIAL M1G37 TRNA METHYLTRANSFERASE TRMD FROM PSEUDOMONAS AERUGINOSA

> <s_pdb_PDB_ID>
6JKI

> <r_pdb_PDB_CRYST1_a>
85.67

> <r_pdb_PDB_CRYST1_b>
85.67

> <r_pdb_PDB_CRYST1_c>
147.6

> <r_pdb_PDB_CRYST1_alpha>
90

> <r_pdb_PDB_CRYST1_beta>
90

> <r_pdb_PDB_CRYST1_gamma>
120

> <s_pdb_PDB_CRYST1_Space_Group>
P 32 2 1

> <i_pdb_PDB_CRYST1_z>
12

> <s_pdb_PDB_CLASSIFICATION>
TRANSFERASE

> <s_pdb_PDB_DEPOSITION_DATE>
01-MAR-19

> <s_pdb_PDB_format_version>
3.30

> <r_pdb_PDB_R>
0.207

> <r_pdb_PDB_Rfree>
0.251

> <r_pdb_PDB_RESOLUTION>
2.59

> <s_pdb_PDB_EXPDTA>
X-RAY DIFFRACTION

> <r_pdb_PDB_EXPDTA_TEMPERATURE>
90

> <s_pdb_PDB_REMARK_350_Biomolecule_1_Transform_1_Chains>
A, B

> <s_pdb_PDB_REMARK_350_Biomolecule_1_Transform_1_Matrix_1>
1.000000 0.000000 0.000000   0.000000;0.000000 1.000000 0.000000   0.000000;0.000000 0.000000 1.000000   0.000000

> <r_pdb_PDB_EXPDTA_PH>
8

> <s_ppw_entry_id_backup>
155

> <b_ppw_prepared>
1

> <s_ppw_prepared_with_version>
2021-1

> <b_ppw_assigned_bond_orders>
1

> <b_ppw_added_hydrogens>
1

> <b_ppw_treated_metals>
1

> <b_ppw_created_disulfur>
1

> <s_m_Chain_Name>
A

> <s_m_subgroup_title>
6jki - preprocessed_split_by_chain->6jki - preprocessed_chainA_split_by_structure

> <s_m_subgroupid>
6jki - preprocessed_split_by_chain->6jki - preprocessed_chainA_split_by_structure

> <b_m_subgroup_collapsed>
0

$$$$
