6JOE - preprocessed_ligand1
                    3D
 Schrodinger Suite 2021-1.
 51 54  0  0  1  0            999 V2000
  -39.5310   30.4630   -5.8580 C   0  0  0  0  0  0
  -40.8770   30.6130   -5.0970 C   0  0  0  0  0  0
  -40.6620   30.6410   -3.5600 C   0  0  0  0  0  0
  -41.9590   30.6080   -2.8540 N   0  0  0  0  0  0
  -39.7490   29.4990   -3.0630 C   0  0  0  0  0  0
  -38.4580   29.3960   -3.8660 C   0  0  0  0  0  0
  -38.7130   29.3490   -5.3240 N   0  0  2  0  0  0
  -37.4720   29.1770   -6.0980 C   0  0  0  0  0  0
  -37.3880   27.8450   -6.4990 C   0  0  0  0  0  0
  -38.1660   27.3910   -7.5770 C   0  0  0  0  0  0
  -38.1070   26.0330   -7.9180 C   0  0  0  0  0  0
  -36.5890   26.9550   -5.7650 C   0  0  0  0  0  0
  -36.5320   25.6070   -6.1350 C   0  0  0  0  0  0
  -37.3080   25.1400   -7.1960 C   0  0  0  0  0  0
  -37.2500   23.7900   -7.5470 C   0  0  0  0  0  0
  -36.4030   23.6160   -8.7480 N   0  0  0  0  0  0
  -35.2670   22.9500   -8.7060 C   0  0  0  0  0  0
  -34.9720   22.3730   -7.6540 O   0  0  0  0  0  0
  -34.4410   22.9120   -9.8190 C   0  0  0  0  0  0
  -34.5770   23.4910  -11.0730 C   0  0  0  0  0  0
  -35.5760   24.2010  -11.6660 C   0  0  0  0  0  0
  -36.6370   24.5170  -11.0970 O   0  0  0  0  0  0
  -35.4700   24.6160  -13.0160 N   0  0  0  0  0  0
  -34.4170   24.3540  -13.7500 C   0  0  0  0  0  0
  -33.3750   23.6410  -13.1360 N   0  0  0  0  0  0
  -33.5060   23.2000  -11.8750 C   0  0  0  0  0  0
  -32.4010   22.4070  -11.0670 S   0  0  0  0  0  0
  -33.2450   22.3110   -9.6580 C   0  0  0  0  0  0
  -38.9679   31.3935   -5.7855 H   0  0  0  0  0  0
  -39.7298   30.2921   -6.9160 H   0  0  0  0  0  0
  -41.5347   29.7833   -5.3562 H   0  0  0  0  0  0
  -41.3707   31.5326   -5.4110 H   0  0  0  0  0  0
  -40.1753   31.5842   -3.3120 H   0  0  0  0  0  0
  -41.8006   30.6268   -1.8567 H   0  0  0  0  0  0
  -42.5094   31.4113   -3.1222 H   0  0  0  0  0  0
  -40.2878   28.5532   -3.1203 H   0  0  0  0  0  0
  -39.5100   29.6577   -2.0114 H   0  0  0  0  0  0
  -37.9137   28.5012   -3.5641 H   0  0  0  0  0  0
  -37.8195   30.2492   -3.6369 H   0  0  0  0  0  0
  -36.6155   29.4216   -5.4697 H   0  0  0  0  0  0
  -37.5009   29.8198   -6.9778 H   0  0  0  0  0  0
  -38.7906   28.0836   -8.1216 H   0  0  0  0  0  0
  -38.6845   25.6598   -8.7508 H   0  0  0  0  0  0
  -36.0213   27.3116   -4.9183 H   0  0  0  0  0  0
  -35.8867   24.9267   -5.5990 H   0  0  0  0  0  0
  -38.2558   23.4257   -7.7562 H   0  0  0  0  0  0
  -36.8295   23.2176   -6.7202 H   0  0  0  0  0  0
  -36.7171   24.0245   -9.6167 H   0  0  0  0  0  0
  -36.2232   25.1337  -13.4458 H   0  0  0  0  0  0
  -34.3795   24.6838  -14.7777 H   0  0  0  0  0  0
  -32.9867   21.8683   -8.7073 H   0  0  0  0  0  0
  1  2  1  0  0  0
  1  7  1  0  0  0
  1 29  1  0  0  0
  1 30  1  0  0  0
  2  3  1  0  0  0
  2 31  1  0  0  0
  2 32  1  0  0  0
  3  4  1  0  0  0
  3  5  1  0  0  0
  3 33  1  0  0  0
  4 34  1  0  0  0
  4 35  1  0  0  0
  5  6  1  0  0  0
  5 36  1  0  0  0
  5 37  1  0  0  0
  6  7  1  0  0  0
  6 38  1  0  0  0
  6 39  1  0  0  0
  7  8  1  0  0  0
  8  9  1  0  0  0
  8 40  1  0  0  0
  8 41  1  0  0  0
  9 10  2  0  0  0
  9 12  1  0  0  0
 10 11  1  0  0  0
 10 42  1  0  0  0
 11 14  2  0  0  0
 11 43  1  0  0  0
 12 13  2  0  0  0
 12 44  1  0  0  0
 13 14  1  0  0  0
 13 45  1  0  0  0
 14 15  1  0  0  0
 15 16  1  0  0  0
 15 46  1  0  0  0
 15 47  1  0  0  0
 16 17  1  0  0  0
 16 48  1  0  0  0
 17 18  2  0  0  0
 17 19  1  0  0  0
 19 20  1  0  0  0
 19 28  2  0  0  0
 20 21  1  0  0  0
 20 26  2  0  0  0
 21 22  2  0  0  0
 21 23  1  0  0  0
 23 24  1  0  0  0
 23 49  1  0  0  0
 24 25  2  0  0  0
 24 50  1  0  0  0
 25 26  1  0  0  0
 26 27  1  0  0  0
 27 28  1  0  0  0
 28 51  1  0  0  0
M  END
> <s_m_entry_id>
145

> <s_m_entry_name>
pdb6joe.ent.1_ligand1

> <s_pdb_PDB_TITLE>
CRYSTAL STRUCTURE OF TRMD FROM PSEUDOMONAS AERUGINOSA IN COMPLEX WITH ACTIVE-SITE INHIBITOR

> <s_pdb_PDB_ID>
6JOE

> <r_pdb_PDB_CRYST1_a>
85.505

> <r_pdb_PDB_CRYST1_b>
85.505

> <r_pdb_PDB_CRYST1_c>
147.539

> <r_pdb_PDB_CRYST1_alpha>
90

> <r_pdb_PDB_CRYST1_beta>
90

> <r_pdb_PDB_CRYST1_gamma>
120

> <s_pdb_PDB_CRYST1_Space_Group>
P 32 2 1

> <i_pdb_PDB_CRYST1_z>
12

> <s_pdb_PDB_CLASSIFICATION>
TRANSFERASE

> <s_pdb_PDB_DEPOSITION_DATE>
20-MAR-19

> <s_pdb_PDB_format_version>
3.30

> <r_pdb_PDB_R>
0.209

> <r_pdb_PDB_Rfree>
0.245

> <r_pdb_PDB_RESOLUTION>
2.21

> <s_pdb_PDB_EXPDTA>
X-RAY DIFFRACTION

> <r_pdb_PDB_EXPDTA_TEMPERATURE>
100

> <s_pdb_PDB_REMARK_350_Biomolecule_1_Transform_1_Chains>
A, B

> <s_pdb_PDB_REMARK_350_Biomolecule_1_Transform_1_Matrix_1>
1.000000 0.000000 0.000000   0.000000;0.000000 1.000000 0.000000   0.000000;0.000000 0.000000 1.000000   0.000000

> <s_m_Source_Path>
C:\Users\maila\AppData\Local\Temp\7zE0C379B6C

> <s_m_Source_File>
pdb6joe.ent.gz

> <i_m_Source_File_Index>
1

> <r_pdb_PDB_EXPDTA_PH>
8.6

> <s_ppw_entry_id_backup>
61

> <b_ppw_prepared>
1

> <s_ppw_prepared_with_version>
2021-1

> <b_ppw_assigned_bond_orders>
1

> <b_ppw_added_hydrogens>
1

> <b_ppw_treated_metals>
1

> <b_ppw_created_disulfur>
1

> <s_m_subgroup_title>
6JOE - preprocessed_split_by_structure

> <s_m_subgroupid>
6JOE - preprocessed_split_by_structure

> <b_m_subgroup_collapsed>
0

$$$$
